version 3
run General-0-20250223-21:47:00-7054
attr configname General
attr datetime 20250223-21:47:00
attr datetimef 20250223-214700
attr experiment General
attr inifile omnetpp.ini
attr iterationvars ""
attr iterationvarsd ""
attr iterationvarsf ""
attr measurement ""
attr network Physical_layer.simulations.DroneNetwork
attr processid 7054
attr repetition 0
attr replication #0
attr resultdir results
attr runnumber 0
attr seedset 0
config image-path ../../../inet/images
config ned-path .;../Map_block;../Calculation_block;../Drone_block;
config debug-on-errors true
config record-eventlog true
config network Physical_layer.simulations.DroneNetwork
config sim-time-limit 500s
config **.mapLoader.heightmap "\"heightmap.txt\""
config **.mapLoader.blockSize 100
config *.drones[*].ipv4.arp.typename GlobalArp
config *.drones[0].numApps 1
config *.drones[0].app[0].typename UdpBasicApp
config *.drones[0].app[0].destAddresses "\"drones[1]\""
config *.drones[0].app[0].destPort 5000
config *.drones[0].app[0].messageLength 1000B
config *.drones[0].app[0].sendInterval exponential(5s)
config *.drones[0].app[0].packetName "\"UDPData\""
config *.drones[1].numApps 1
config *.drones[1].app[0].typename UdpSink
config *.drones[1].app[0].localPort 5000
config *.drones[*].wlan[0].typename AckingWirelessInterface
config *.drones[*].wlan[0].mac.useAck false
config *.drones[*].wlan[0].mac.fullDuplex false
config *.drones[*].wlan[0].radio.transmitter.communicationRange 500m
config *.drones[*].wlan[0].radio.receiver.ignoreInterference true
config *.drones[*].wlan[0].mac.headerLength 23B
config *.drones[*].**.bitrate 1Mbps

par DroneNetwork.ChargingStation[0] typename "\"Physical_layer.Drone_block.ChargingStation\""
par DroneNetwork.ChargingStation[0] ChargingStation_ID 4
par DroneNetwork.ChargingStation[0] frequencyHz 24000Hz
attr unit Hz
par DroneNetwork.ChargingStation[0] numOfSockets 3
par DroneNetwork.ChargingStation[1] typename "\"Physical_layer.Drone_block.ChargingStation\""
par DroneNetwork.ChargingStation[1] ChargingStation_ID 5
par DroneNetwork.ChargingStation[1] frequencyHz 24000Hz
attr unit Hz
par DroneNetwork.ChargingStation[1] numOfSockets 3
par DroneNetwork.configurator typename "\"inet.networklayer.configurator.ipv4.Ipv4NetworkConfigurator\""
par DroneNetwork.configurator minLinkWeight 0.001
par DroneNetwork.configurator configureIsolatedNetworksSeparatly false
par DroneNetwork.configurator config "<config>...</config> at content:1"
par DroneNetwork.configurator assignAddresses true
par DroneNetwork.configurator assignUniqueAddresses true
par DroneNetwork.configurator assignDisjunctSubnetAddresses true
par DroneNetwork.configurator addStaticRoutes true
par DroneNetwork.configurator addDefaultRoutes true
par DroneNetwork.configurator addSubnetRoutes true
par DroneNetwork.configurator addDirectRoutes true
par DroneNetwork.configurator optimizeRoutes true
par DroneNetwork.configurator dumpTopology false
par DroneNetwork.configurator dumpLinks false
par DroneNetwork.configurator dumpAddresses false
par DroneNetwork.configurator dumpRoutes false
par DroneNetwork.configurator dumpConfig "\"\""
par DroneNetwork.radioMedium.propagation typename "\"inet.physicallayer.wireless.common.propagation.ConstantSpeedPropagation\""
par DroneNetwork.radioMedium.propagation propagationSpeed 2.99792e+08mps
attr unit mps
par DroneNetwork.radioMedium.propagation ignoreMovementDuringTransmission true
par DroneNetwork.radioMedium.propagation ignoreMovementDuringPropagation true
par DroneNetwork.radioMedium.propagation ignoreMovementDuringReception true
scalar DroneNetwork.radioMedium.propagation "Arrival computation count" 38
par DroneNetwork.radioMedium.analogModel typename "\"inet.physicallayer.wireless.unitdisk.UnitDiskAnalogModel\""
par DroneNetwork.radioMedium.pathLoss typename "\"inet.physicallayer.wireless.common.pathloss.FreeSpacePathLoss\""
par DroneNetwork.radioMedium.pathLoss alpha 2
par DroneNetwork.radioMedium.pathLoss systemLoss 0dB
attr unit dB
par DroneNetwork.radioMedium.mediumLimitCache typename "\"inet.physicallayer.wireless.common.medium.MediumLimitCache\""
par DroneNetwork.radioMedium.mediumLimitCache centerFrequency "nan Hz"
attr unit Hz
par DroneNetwork.radioMedium.mediumLimitCache maxSpeed "nan mps"
attr unit mps
par DroneNetwork.radioMedium.mediumLimitCache maxTransmissionPower "nan W"
attr unit W
par DroneNetwork.radioMedium.mediumLimitCache minInterferencePower "nan dBm"
attr unit dBm
par DroneNetwork.radioMedium.mediumLimitCache minReceptionPower "nan dBm"
attr unit dBm
par DroneNetwork.radioMedium.mediumLimitCache maxAntennaGain 0dB
attr unit dB
par DroneNetwork.radioMedium.mediumLimitCache minInterferenceTime 1e-12s
attr unit s
par DroneNetwork.radioMedium.mediumLimitCache maxTransmissionDuration 0.01s
attr unit s
par DroneNetwork.radioMedium.mediumLimitCache maxCommunicationRange "nan m"
attr unit m
par DroneNetwork.radioMedium.mediumLimitCache maxInterferenceRange "nan m"
attr unit m
par DroneNetwork.radioMedium.communicationCache typename "\"inet.physicallayer.wireless.common.communicationcache.VectorCommunicationCache\""
par DroneNetwork.radioMedium typename "\"inet.physicallayer.wireless.unitdisk.UnitDiskRadioMedium\""
par DroneNetwork.radioMedium physicalEnvironmentModule "\"physicalEnvironment\""
par DroneNetwork.radioMedium signalAnalogRepresentation "\"unitDisk\""
attr enum unitDisk,scalar,dimensional
par DroneNetwork.radioMedium rangeFilter "\"\""
par DroneNetwork.radioMedium radioModeFilter false
par DroneNetwork.radioMedium listeningFilter false
par DroneNetwork.radioMedium macAddressFilter false
par DroneNetwork.radioMedium recordTransmissionLog false
par DroneNetwork.radioMedium recordReceptionLog false
scalar DroneNetwork.radioMedium "transmission count" 19
scalar DroneNetwork.radioMedium "signal send count" 38
scalar DroneNetwork.radioMedium "reception computation count" 38
scalar DroneNetwork.radioMedium "interference computation count" 119
scalar DroneNetwork.radioMedium "reception decision computation count" 26
scalar DroneNetwork.radioMedium "listening decision computation count" 59
scalar DroneNetwork.radioMedium "reception cache hit" 83.478260869565
attr unit %
scalar DroneNetwork.radioMedium "interference cache hit" 66.666666666667
attr unit %
scalar DroneNetwork.radioMedium "noise cache hit" 0
attr unit %
scalar DroneNetwork.radioMedium "snir cache hit" 50
attr unit %
scalar DroneNetwork.radioMedium "reception decision cache hit" 50
attr unit %
scalar DroneNetwork.radioMedium "reception result cache hit" 0
attr unit %
par DroneNetwork.drones[0].radioIn[0].channel typename "\"ned.IdealChannel\""
par DroneNetwork.drones[0].mobility typename "\"inet.mobility.static.StationaryMobility\""
par DroneNetwork.drones[0].mobility subjectModule "\"^\""
par DroneNetwork.drones[0].mobility coordinateSystemModule "\"\""
par DroneNetwork.drones[0].mobility displayStringTextFormat "\"p: %p\\nv: %v\""
attr mutable ""
par DroneNetwork.drones[0].mobility updateDisplayString true
par DroneNetwork.drones[0].mobility constraintAreaMinX "-inf m"
attr unit m
par DroneNetwork.drones[0].mobility constraintAreaMinY "-inf m"
attr unit m
par DroneNetwork.drones[0].mobility constraintAreaMinZ "-inf m"
attr unit m
par DroneNetwork.drones[0].mobility constraintAreaMaxX "inf m"
attr unit m
par DroneNetwork.drones[0].mobility constraintAreaMaxY "inf m"
attr unit m
par DroneNetwork.drones[0].mobility constraintAreaMaxZ "inf m"
attr unit m
par DroneNetwork.drones[0].mobility initialX 250m
attr unit m
par DroneNetwork.drones[0].mobility initialY 200m
attr unit m
par DroneNetwork.drones[0].mobility initialZ 0m
attr unit m
par DroneNetwork.drones[0].mobility initialLatitude "nan deg"
attr unit deg
par DroneNetwork.drones[0].mobility initialLongitude "nan deg"
attr unit deg
par DroneNetwork.drones[0].mobility initialAltitude 0m
attr unit m
par DroneNetwork.drones[0].mobility initialHeading 0deg
attr unit deg
par DroneNetwork.drones[0].mobility initialElevation 0deg
attr unit deg
par DroneNetwork.drones[0].mobility initialBank 0deg
attr unit deg
par DroneNetwork.drones[0].mobility initFromDisplayString false
par DroneNetwork.drones[0].mobility updateFromDisplayString false
par DroneNetwork.drones[0].interfaceTable typename "\"inet.networklayer.common.InterfaceTable\""
par DroneNetwork.drones[0].interfaceTable displayAddresses false
par DroneNetwork.drones[0].cb typename "\"inet.common.MessageDispatcher\""
par DroneNetwork.drones[0].cb displayStringTextFormat "\"processed %p pk (%l)\""
par DroneNetwork.drones[0].cb forwardServiceRegistration true
par DroneNetwork.drones[0].cb forwardProtocolRegistration true
par DroneNetwork.drones[0].bl typename "\"inet.common.MessageDispatcher\""
par DroneNetwork.drones[0].bl displayStringTextFormat "\"processed %p pk (%l)\""
par DroneNetwork.drones[0].bl forwardServiceRegistration true
par DroneNetwork.drones[0].bl forwardProtocolRegistration true
par DroneNetwork.drones[0].li typename "\"inet.common.MessageDispatcher\""
par DroneNetwork.drones[0].li displayStringTextFormat "\"processed %p pk (%l)\""
par DroneNetwork.drones[0].li forwardServiceRegistration true
par DroneNetwork.drones[0].li forwardProtocolRegistration true
par DroneNetwork.drones[0].lo[0].upperLayerIn.channel typename "\"ned.IdealChannel\""
par DroneNetwork.drones[0].lo[0].lo.upperLayerOut.channel typename "\"ned.IdealChannel\""
par DroneNetwork.drones[0].lo[0].lo typename "\"inet.linklayer.loopback.Loopback\""
par DroneNetwork.drones[0].lo[0].lo interfaceTableModule "\"DroneNetwork.drones[0].interfaceTable\""
par DroneNetwork.drones[0].lo[0].lo mtu 4470B
attr unit B
scalar DroneNetwork.drones[0].lo[0].lo rcvdPkFromHl:count 0
attr interpolationmode none
attr recordingmode count
attr source packetReceivedFromUpper
attr title "packets received from higher layer, count"
scalar DroneNetwork.drones[0].lo[0].lo rcvdPkFromHl:sum(packetBytes) 0
attr interpolationmode none
attr recordingmode sum(packetBytes)
attr source packetReceivedFromUpper
attr title "packets received from higher layer, sum(packetBytes)"
scalar DroneNetwork.drones[0].lo[0].lo passedUpPk:count 0
attr interpolationmode none
attr recordingmode count
attr source packetSentToUpper
attr title "packets passed to higher layer, count"
scalar DroneNetwork.drones[0].lo[0].lo passedUpPk:sum(packetBytes) 0
attr interpolationmode none
attr recordingmode sum(packetBytes)
attr source packetSentToUpper
attr title "packets passed to higher layer, sum(packetBytes)"
par DroneNetwork.drones[0].lo[0] typename "\"inet.linklayer.loopback.LoopbackInterface\""
par DroneNetwork.drones[0].lo[0] displayStringTextFormat "\"%a (%i)\\n%m\""
par DroneNetwork.drones[0].lo[0] recordPcap false
par DroneNetwork.drones[0].lo[0] numPcapRecorders 0
par DroneNetwork.drones[0].lo[0] interfaceTableModule "\"DroneNetwork.drones[0].interfaceTable\""
scalar DroneNetwork.drones[0].lo[0] packetDropInterfaceDown:count 0
attr interpolationmode none
attr recordingmode count
attr source packetDropReasonIsInterfaceDown(packetDropped)
attr title "packet drops: interface down, count"
scalar DroneNetwork.drones[0].lo[0] packetDropInterfaceDown:sum(packetBytes) 0
attr interpolationmode none
attr recordingmode sum(packetBytes)
attr source packetDropReasonIsInterfaceDown(packetDropped)
attr title "packet drops: interface down, sum(packetBytes)"
scalar DroneNetwork.drones[0].lo[0] packetDropNoCarrier:count 0
attr interpolationmode none
attr recordingmode count
attr source packetDropReasonIsNoCarrier(packetDropped)
attr title "packet drops: no carrier, count"
scalar DroneNetwork.drones[0].lo[0] packetDropNoCarrier:sum(packetBytes) 0
attr interpolationmode none
attr recordingmode sum(packetBytes)
attr source packetDropReasonIsNoCarrier(packetDropped)
attr title "packet drops: no carrier, sum(packetBytes)"
par DroneNetwork.drones[0].wlan[0].upperLayerIn.channel typename "\"ned.IdealChannel\""
par DroneNetwork.drones[0].wlan[0].radioIn.channel typename "\"ned.IdealChannel\""
par DroneNetwork.drones[0].wlan[0].mac.upperLayerOut.channel typename "\"ned.IdealChannel\""
par DroneNetwork.drones[0].wlan[0].queue typename "\"inet.queueing.queue.DropTailQueue\""
par DroneNetwork.drones[0].wlan[0].queue displayStringTextFormat "\"contains %p pk (%l) pushed %u\\npulled %o removed %r dropped %d\""
par DroneNetwork.drones[0].wlan[0].queue packetCapacity 100
par DroneNetwork.drones[0].wlan[0].queue dataCapacity -1b
attr unit b
par DroneNetwork.drones[0].wlan[0].queue dropperClass "\"inet::queueing::PacketAtCollectionEndDropper\""
par DroneNetwork.drones[0].wlan[0].queue comparatorClass "\"\""
par DroneNetwork.drones[0].wlan[0].queue bufferModule "\"\""
scalar DroneNetwork.drones[0].wlan[0].queue queueLength:last 0
attr autoWarmupFilter false
attr interpolationmode sample-hold
attr recordingmode last
attr source "warmup(atomic(constant0(packetPushEnded) + count(packetPushStarted) - count(packetPulled) - count(packetRemoved) - count(packetDropped)))"
attr title "queue length, last"
attr unit pk
scalar DroneNetwork.drones[0].wlan[0].queue queueLength:max 0
attr autoWarmupFilter false
attr interpolationmode sample-hold
attr recordingmode max
attr source "warmup(atomic(constant0(packetPushEnded) + count(packetPushStarted) - count(packetPulled) - count(packetRemoved) - count(packetDropped)))"
attr title "queue length, max"
attr unit pk
scalar DroneNetwork.drones[0].wlan[0].queue queueLength:timeavg 0
attr autoWarmupFilter false
attr interpolationmode sample-hold
attr recordingmode timeavg
attr source "warmup(atomic(constant0(packetPushEnded) + count(packetPushStarted) - count(packetPulled) - count(packetRemoved) - count(packetDropped)))"
attr title "queue length, timeavg"
attr unit pk
scalar DroneNetwork.drones[0].wlan[0].queue queueBitLength:last 0
attr autoWarmupFilter false
attr interpolationmode sample-hold
attr recordingmode last
attr source "warmup(atomic(constant0(packetPushEnded) + sum(packetLength(packetPushStarted)) - sum(packetLength(packetPulled)) - sum(packetLength(packetRemoved)) - sum(packetLength(packetDropped))))"
attr title "queue bit length, last"
attr unit b
scalar DroneNetwork.drones[0].wlan[0].queue queueBitLength:max 0
attr autoWarmupFilter false
attr interpolationmode sample-hold
attr recordingmode max
attr source "warmup(atomic(constant0(packetPushEnded) + sum(packetLength(packetPushStarted)) - sum(packetLength(packetPulled)) - sum(packetLength(packetRemoved)) - sum(packetLength(packetDropped))))"
attr title "queue bit length, max"
attr unit b
scalar DroneNetwork.drones[0].wlan[0].queue queueBitLength:timeavg 0
attr autoWarmupFilter false
attr interpolationmode sample-hold
attr recordingmode timeavg
attr source "warmup(atomic(constant0(packetPushEnded) + sum(packetLength(packetPushStarted)) - sum(packetLength(packetPulled)) - sum(packetLength(packetRemoved)) - sum(packetLength(packetDropped))))"
attr title "queue bit length, timeavg"
attr unit b
statistic DroneNetwork.drones[0].wlan[0].queue queueingTime:histogram
field count 11
field mean 0
field stddev 0
field min 0
field max 0
field sum 0
field sqrsum 0
attr interpolationmode none
attr recordingmode histogram
attr source queueingTime(packetPulled)
attr title "queueing times"
attr unit s
bin	-inf	0
bin	-0.5	0
bin	-0.48	0
bin	-0.46	0
bin	-0.44	0
bin	-0.42	0
bin	-0.4	0
bin	-0.38	0
bin	-0.36	0
bin	-0.34	0
bin	-0.32	0
bin	-0.3	0
bin	-0.28	0
bin	-0.26	0
bin	-0.24	0
bin	-0.22	0
bin	-0.2	0
bin	-0.18	0
bin	-0.16	0
bin	-0.14	0
bin	-0.12	0
bin	-0.1	0
bin	-0.08	0
bin	-0.06	0
bin	-0.04	0
bin	-0.02	0
bin	0	11
bin	0.02	0
bin	0.04	0
bin	0.06	0
bin	0.08	0
bin	0.1	0
bin	0.12	0
bin	0.14	0
bin	0.16	0
bin	0.18	0
bin	0.2	0
bin	0.22	0
bin	0.24	0
bin	0.26	0
bin	0.28	0
bin	0.3	0
bin	0.32	0
bin	0.34	0
bin	0.36	0
bin	0.38	0
bin	0.4	0
bin	0.42	0
bin	0.44	0
bin	0.46	0
bin	0.48	0
bin	0.5	0
scalar DroneNetwork.drones[0].wlan[0].queue outgoingPackets:count 11
attr recordingmode count
attr source packetPulled
attr title "outgoing packets, count"
attr unit pk
scalar DroneNetwork.drones[0].wlan[0].queue outgoingPacketLengths:sum 59232
attr interpolationmode none
attr recordingmode sum
attr source packetLength(packetPulled)
attr title "outgoing packet lengths, sum"
attr unit b
statistic DroneNetwork.drones[0].wlan[0].queue outgoingPacketLengths:histogram
field count 11
field mean 5384.7272727273
field stddev 3939.3310368871
field min 416
field max 8224
field sum 59232
field sqrsum 474131456
attr interpolationmode none
attr recordingmode histogram
attr source packetLength(packetPulled)
attr title "outgoing packet lengths"
attr unit b
bin	-inf	0
bin	0	0
bin	200	0
bin	400	4
bin	600	0
bin	800	0
bin	1000	0
bin	1200	0
bin	1400	0
bin	1600	0
bin	1800	0
bin	2000	0
bin	2200	0
bin	2400	0
bin	2600	0
bin	2800	0
bin	3000	0
bin	3200	0
bin	3400	0
bin	3600	0
bin	3800	0
bin	4000	0
bin	4200	0
bin	4400	0
bin	4600	0
bin	4800	0
bin	5000	0
bin	5200	0
bin	5400	0
bin	5600	0
bin	5800	0
bin	6000	0
bin	6200	0
bin	6400	0
bin	6600	0
bin	6800	0
bin	7000	0
bin	7200	0
bin	7400	0
bin	7600	0
bin	7800	0
bin	8000	0
bin	8200	7
bin	8400	0
bin	8600	0
bin	8800	0
bin	9000	0
bin	9200	0
bin	9400	0
bin	9600	0
bin	9800	0
bin	10000	0
bin	10200	0
statistic DroneNetwork.drones[0].wlan[0].queue flowQueueingTime:histogram
field count 0
field mean -nan
field stddev -nan
field min -nan
field max -nan
field sum 0
field sqrsum 0
attr interpolationmode none
attr recordingmode histogram
attr source queueingTime(demuxFlow(packetPulled))
attr title "flow queueing times"
attr unit s
bin	-inf	0
bin	0	0
bin	1	0
scalar DroneNetwork.drones[0].wlan[0].queue incomingPackets:count 11
attr recordingmode count
attr source packetPushStarted
attr title "incoming packets, count"
attr unit pk
scalar DroneNetwork.drones[0].wlan[0].queue incomingPacketLengths:sum 59232
attr interpolationmode none
attr recordingmode sum
attr source packetLength(packetPushStarted)
attr title "incoming packet lengths, sum"
attr unit b
statistic DroneNetwork.drones[0].wlan[0].queue incomingPacketLengths:histogram
field count 11
field mean 5384.7272727273
field stddev 3939.3310368871
field min 416
field max 8224
field sum 59232
field sqrsum 474131456
attr interpolationmode none
attr recordingmode histogram
attr source packetLength(packetPushStarted)
attr title "incoming packet lengths"
attr unit b
bin	-inf	0
bin	0	0
bin	200	0
bin	400	4
bin	600	0
bin	800	0
bin	1000	0
bin	1200	0
bin	1400	0
bin	1600	0
bin	1800	0
bin	2000	0
bin	2200	0
bin	2400	0
bin	2600	0
bin	2800	0
bin	3000	0
bin	3200	0
bin	3400	0
bin	3600	0
bin	3800	0
bin	4000	0
bin	4200	0
bin	4400	0
bin	4600	0
bin	4800	0
bin	5000	0
bin	5200	0
bin	5400	0
bin	5600	0
bin	5800	0
bin	6000	0
bin	6200	0
bin	6400	0
bin	6600	0
bin	6800	0
bin	7000	0
bin	7200	0
bin	7400	0
bin	7600	0
bin	7800	0
bin	8000	0
bin	8200	7
bin	8400	0
bin	8600	0
bin	8800	0
bin	9000	0
bin	9200	0
bin	9400	0
bin	9600	0
bin	9800	0
bin	10000	0
bin	10200	0
scalar DroneNetwork.drones[0].wlan[0].queue droppedPacketsQueueOverflow:count 0
attr interpolationmode none
attr recordingmode count
attr source packetDropReasonIsQueueOverflow(packetDropped)
attr title "dropped packets: queue overflow, count"
attr unit pk
scalar DroneNetwork.drones[0].wlan[0].queue droppedPacketLengthsQueueOverflow:sum 0
attr interpolationmode none
attr recordingmode sum
attr source packetLength(packetDropReasonIsQueueOverflow(packetDropped))
attr title "dropped packet lengths: queue overflow, sum"
attr unit b
par DroneNetwork.drones[0].wlan[0].mac typename "\"inet.linklayer.acking.AckingMac\""
par DroneNetwork.drones[0].wlan[0].mac interfaceTableModule "\"DroneNetwork.drones[0].interfaceTable\""
par DroneNetwork.drones[0].wlan[0].mac address "\"auto\""
attr mutable ""
par DroneNetwork.drones[0].wlan[0].mac bitrate 1e+06bps
attr unit bps
par DroneNetwork.drones[0].wlan[0].mac mtu 4470B
attr unit B
par DroneNetwork.drones[0].wlan[0].mac headerLength 23B
attr unit B
par DroneNetwork.drones[0].wlan[0].mac promiscuous false
par DroneNetwork.drones[0].wlan[0].mac fullDuplex false
par DroneNetwork.drones[0].wlan[0].mac useAck false
par DroneNetwork.drones[0].wlan[0].mac ackTimeout 0.1s
attr unit s
scalar DroneNetwork.drones[0].wlan[0].mac rcvdPkFromLl:count 4
attr interpolationmode none
attr recordingmode count
attr source packetReceivedFromLower
attr title "packets received from lower layer, count"
scalar DroneNetwork.drones[0].wlan[0].mac rcvdPkFromLl:sum(packetBytes) 284
attr interpolationmode none
attr recordingmode sum(packetBytes)
attr source packetReceivedFromLower
attr title "packets received from lower layer, sum(packetBytes)"
scalar DroneNetwork.drones[0].wlan[0].mac sentDownPk:count 11
attr interpolationmode none
attr recordingmode count
attr source packetSentToLower
attr title "packets sent to lower layer, count"
scalar DroneNetwork.drones[0].wlan[0].mac sentDownPk:sum(packetBytes) 7657
attr interpolationmode none
attr recordingmode sum(packetBytes)
attr source packetSentToLower
attr title "packets sent to lower layer, sum(packetBytes)"
scalar DroneNetwork.drones[0].wlan[0].mac rcvdPkFromHl:count 11
attr interpolationmode none
attr recordingmode count
attr source packetReceivedFromUpper
attr title "packets received from higher layer, count"
scalar DroneNetwork.drones[0].wlan[0].mac rcvdPkFromHl:sum(packetBytes) 7404
attr interpolationmode none
attr recordingmode sum(packetBytes)
attr source packetReceivedFromUpper
attr title "packets received from higher layer, sum(packetBytes)"
scalar DroneNetwork.drones[0].wlan[0].mac passedUpPk:count 4
attr interpolationmode none
attr recordingmode count
attr source packetSentToUpper
attr title "packets passed to higher layer, count"
scalar DroneNetwork.drones[0].wlan[0].mac passedUpPk:sum(packetBytes) 192
attr interpolationmode none
attr recordingmode sum(packetBytes)
attr source packetSentToUpper
attr title "packets passed to higher layer, sum(packetBytes)"
scalar DroneNetwork.drones[0].wlan[0].mac packetDropIncorrectlyReceived:count 0
attr interpolationmode none
attr recordingmode count
attr source packetDropReasonIsIncorrectlyReceived(packetDropped)
attr title "packet drop: incorrectly received, count"
scalar DroneNetwork.drones[0].wlan[0].mac packetDropIncorrectlyReceived:sum(packetBytes) 0
attr interpolationmode none
attr recordingmode sum(packetBytes)
attr source packetDropReasonIsIncorrectlyReceived(packetDropped)
attr title "packet drop: incorrectly received, sum(packetBytes)"
scalar DroneNetwork.drones[0].wlan[0].mac packetDropInterfaceDown:count 0
attr interpolationmode none
attr recordingmode count
attr source packetDropReasonIsInterfaceDown(packetDropped)
attr title "packet drop: interface down, count"
scalar DroneNetwork.drones[0].wlan[0].mac packetDropInterfaceDown:sum(packetBytes) 0
attr interpolationmode none
attr recordingmode sum(packetBytes)
attr source packetDropReasonIsInterfaceDown(packetDropped)
attr title "packet drop: interface down, sum(packetBytes)"
scalar DroneNetwork.drones[0].wlan[0].mac packetDropNotAddressedToUs:count 0
attr interpolationmode none
attr recordingmode count
attr source packetDropReasonIsNotAddressedToUs(packetDropped)
attr title "packet drop: not addressed to us, count"
scalar DroneNetwork.drones[0].wlan[0].mac packetDropNotAddressedToUs:sum(packetBytes) 0
attr interpolationmode none
attr recordingmode sum(packetBytes)
attr source packetDropReasonIsNotAddressedToUs(packetDropped)
attr title "packet drop: not addressed to us, sum(packetBytes)"
scalar DroneNetwork.drones[0].wlan[0].mac linkBroken:count 0
attr interpolationmode none
attr recordingmode count
attr source linkBroken
attr title "link break, count"
par DroneNetwork.drones[0].wlan[0].radio.antenna typename "\"inet.physicallayer.wireless.common.antenna.IsotropicAntenna\""
par DroneNetwork.drones[0].wlan[0].radio.antenna mobilityModule "\"^.^.^.mobility\""
par DroneNetwork.drones[0].wlan[0].radio.antenna numAntennas 1
par DroneNetwork.drones[0].wlan[0].radio.transmitter typename "\"inet.physicallayer.wireless.unitdisk.UnitDiskTransmitter\""
par DroneNetwork.drones[0].wlan[0].radio.transmitter preambleDuration 0s
attr unit s
par DroneNetwork.drones[0].wlan[0].radio.transmitter headerLength 96b
attr unit b
par DroneNetwork.drones[0].wlan[0].radio.transmitter bitrate 1e+06bps
attr unit bps
par DroneNetwork.drones[0].wlan[0].radio.transmitter communicationRange 500m
attr unit m
par DroneNetwork.drones[0].wlan[0].radio.transmitter interferenceRange 500m
attr unit m
par DroneNetwork.drones[0].wlan[0].radio.transmitter detectionRange 500m
attr unit m
par DroneNetwork.drones[0].wlan[0].radio.receiver typename "\"inet.physicallayer.wireless.unitdisk.UnitDiskReceiver\""
par DroneNetwork.drones[0].wlan[0].radio.receiver ignoreInterference true
par DroneNetwork.drones[0].wlan[0].radio typename "\"inet.physicallayer.wireless.unitdisk.UnitDiskRadio\""
par DroneNetwork.drones[0].wlan[0].radio radioMediumModule "\"radioMedium\""
par DroneNetwork.drones[0].wlan[0].radio energySourceModule "\"\""
par DroneNetwork.drones[0].wlan[0].radio initialRadioMode "\"off\""
attr enum off,sleep,receiver,transmitter,transceiver
par DroneNetwork.drones[0].wlan[0].radio switchingTimes "\"ms 0 0 0 0 0 0 0 0 0 0 0 0 0 0 0 0 0 0 0 0 0 0 0 0 0\""
par DroneNetwork.drones[0].wlan[0].radio sendRawBytes false
par DroneNetwork.drones[0].wlan[0].radio separateTransmissionParts false
par DroneNetwork.drones[0].wlan[0].radio separateReceptionParts false
par DroneNetwork.drones[0].wlan[0].radio displayCommunicationRange false
par DroneNetwork.drones[0].wlan[0].radio displayInterferenceRange false
scalar DroneNetwork.drones[0].wlan[0].radio radioMode:count 25
attr interpolationmode sample-hold
attr recordingmode count
attr source radioModeChanged
attr title "Radio mode, count"
scalar DroneNetwork.drones[0].wlan[0].radio receptionState:count 31
attr interpolationmode sample-hold
attr recordingmode count
attr source receptionStateChanged
attr title "Radio reception state, count"
scalar DroneNetwork.drones[0].wlan[0].radio transmissionState:count 44
attr interpolationmode sample-hold
attr recordingmode count
attr source transmissionStateChanged
attr title "Radio transmission state, count"
statistic DroneNetwork.drones[0].wlan[0].radio minSnir:histogram
field count 0
field mean -nan
field stddev -nan
field min -nan
field max -nan
field sum 0
field sqrsum 0
attr recordingmode histogram
attr source minimumSnir(packetSentToUpper)
attr title "Min SNIR"
bin	-inf	0
bin	0	0
bin	1	0
statistic DroneNetwork.drones[0].wlan[0].radio packetErrorRate:histogram
field count 4
field mean 0
field stddev 0
field min 0
field max 0
field sum 0
field sqrsum 0
attr recordingmode histogram
attr source packetErrorRate(packetSentToUpper)
attr title "Packet error rate"
bin	-inf	0
bin	-0.5	0
bin	-0.48	0
bin	-0.46	0
bin	-0.44	0
bin	-0.42	0
bin	-0.4	0
bin	-0.38	0
bin	-0.36	0
bin	-0.34	0
bin	-0.32	0
bin	-0.3	0
bin	-0.28	0
bin	-0.26	0
bin	-0.24	0
bin	-0.22	0
bin	-0.2	0
bin	-0.18	0
bin	-0.16	0
bin	-0.14	0
bin	-0.12	0
bin	-0.1	0
bin	-0.08	0
bin	-0.06	0
bin	-0.04	0
bin	-0.02	0
bin	0	4
bin	0.02	0
bin	0.04	0
bin	0.06	0
bin	0.08	0
bin	0.1	0
bin	0.12	0
bin	0.14	0
bin	0.16	0
bin	0.18	0
bin	0.2	0
bin	0.22	0
bin	0.24	0
bin	0.26	0
bin	0.28	0
bin	0.3	0
bin	0.32	0
bin	0.34	0
bin	0.36	0
bin	0.38	0
bin	0.4	0
bin	0.42	0
bin	0.44	0
bin	0.46	0
bin	0.48	0
bin	0.5	0
statistic DroneNetwork.drones[0].wlan[0].radio bitErrorRate:histogram
field count 4
field mean 0
field stddev 0
field min 0
field max 0
field sum 0
field sqrsum 0
attr recordingmode histogram
attr source bitErrorRate(packetSentToUpper)
attr title "Bit error rate"
bin	-inf	0
bin	-0.5	0
bin	-0.48	0
bin	-0.46	0
bin	-0.44	0
bin	-0.42	0
bin	-0.4	0
bin	-0.38	0
bin	-0.36	0
bin	-0.34	0
bin	-0.32	0
bin	-0.3	0
bin	-0.28	0
bin	-0.26	0
bin	-0.24	0
bin	-0.22	0
bin	-0.2	0
bin	-0.18	0
bin	-0.16	0
bin	-0.14	0
bin	-0.12	0
bin	-0.1	0
bin	-0.08	0
bin	-0.06	0
bin	-0.04	0
bin	-0.02	0
bin	0	4
bin	0.02	0
bin	0.04	0
bin	0.06	0
bin	0.08	0
bin	0.1	0
bin	0.12	0
bin	0.14	0
bin	0.16	0
bin	0.18	0
bin	0.2	0
bin	0.22	0
bin	0.24	0
bin	0.26	0
bin	0.28	0
bin	0.3	0
bin	0.32	0
bin	0.34	0
bin	0.36	0
bin	0.38	0
bin	0.4	0
bin	0.42	0
bin	0.44	0
bin	0.46	0
bin	0.48	0
bin	0.5	0
statistic DroneNetwork.drones[0].wlan[0].radio symbolErrorRate:histogram
field count 4
field mean 0
field stddev 0
field min 0
field max 0
field sum 0
field sqrsum 0
attr recordingmode histogram
attr source symbolErrorRate(packetSentToUpper)
attr title "Symbol error rate"
bin	-inf	0
bin	-0.5	0
bin	-0.48	0
bin	-0.46	0
bin	-0.44	0
bin	-0.42	0
bin	-0.4	0
bin	-0.38	0
bin	-0.36	0
bin	-0.34	0
bin	-0.32	0
bin	-0.3	0
bin	-0.28	0
bin	-0.26	0
bin	-0.24	0
bin	-0.22	0
bin	-0.2	0
bin	-0.18	0
bin	-0.16	0
bin	-0.14	0
bin	-0.12	0
bin	-0.1	0
bin	-0.08	0
bin	-0.06	0
bin	-0.04	0
bin	-0.02	0
bin	0	4
bin	0.02	0
bin	0.04	0
bin	0.06	0
bin	0.08	0
bin	0.1	0
bin	0.12	0
bin	0.14	0
bin	0.16	0
bin	0.18	0
bin	0.2	0
bin	0.22	0
bin	0.24	0
bin	0.26	0
bin	0.28	0
bin	0.3	0
bin	0.32	0
bin	0.34	0
bin	0.36	0
bin	0.38	0
bin	0.4	0
bin	0.42	0
bin	0.44	0
bin	0.46	0
bin	0.48	0
bin	0.5	0
par DroneNetwork.drones[0].wlan[0] typename "\"inet.linklayer.acking.AckingWirelessInterface\""
par DroneNetwork.drones[0].wlan[0] displayStringTextFormat "\"%a (%i)\\n%m\""
par DroneNetwork.drones[0].wlan[0] recordPcap false
par DroneNetwork.drones[0].wlan[0] numPcapRecorders 0
par DroneNetwork.drones[0].wlan[0] interfaceTableModule "\"DroneNetwork.drones[0].interfaceTable\""
par DroneNetwork.drones[0].wlan[0] energySourceModule "\"\""
par DroneNetwork.drones[0].wlan[0] bitrate 1e+06bps
attr unit bps
scalar DroneNetwork.drones[0].wlan[0] packetDropInterfaceDown:count 0
attr interpolationmode none
attr recordingmode count
attr source packetDropReasonIsInterfaceDown(packetDropped)
attr title "packet drops: interface down, count"
scalar DroneNetwork.drones[0].wlan[0] packetDropInterfaceDown:sum(packetBytes) 0
attr interpolationmode none
attr recordingmode sum(packetBytes)
attr source packetDropReasonIsInterfaceDown(packetDropped)
attr title "packet drops: interface down, sum(packetBytes)"
scalar DroneNetwork.drones[0].wlan[0] packetDropNoCarrier:count 0
attr interpolationmode none
attr recordingmode count
attr source packetDropReasonIsNoCarrier(packetDropped)
attr title "packet drops: no carrier, count"
scalar DroneNetwork.drones[0].wlan[0] packetDropNoCarrier:sum(packetBytes) 0
attr interpolationmode none
attr recordingmode sum(packetBytes)
attr source packetDropReasonIsNoCarrier(packetDropped)
attr title "packet drops: no carrier, sum(packetBytes)"
par DroneNetwork.drones[0].ipv4.transportIn.channel typename "\"ned.IdealChannel\""
par DroneNetwork.drones[0].ipv4.up.out[0].channel typename "\"ned.IdealChannel\""
par DroneNetwork.drones[0].ipv4.lp.out[2].channel typename "\"ned.IdealChannel\""
par DroneNetwork.drones[0].ipv4.ifIn.channel typename "\"ned.IdealChannel\""
par DroneNetwork.drones[0].ipv4.configurator typename "\"inet.networklayer.configurator.ipv4.Ipv4NodeConfigurator\""
par DroneNetwork.drones[0].ipv4.configurator interfaceTableModule "\"DroneNetwork.drones[0].interfaceTable\""
par DroneNetwork.drones[0].ipv4.configurator routingTableModule "\"DroneNetwork.drones[0].ipv4.routingTable\""
par DroneNetwork.drones[0].ipv4.configurator networkConfiguratorModule "\"configurator\""
par DroneNetwork.drones[0].ipv4.configurator configureRoutingTable true
par DroneNetwork.drones[0].ipv4.routingTable typename "\"inet.networklayer.ipv4.Ipv4RoutingTable\""
par DroneNetwork.drones[0].ipv4.routingTable interfaceTableModule "\"DroneNetwork.drones[0].interfaceTable\""
par DroneNetwork.drones[0].ipv4.routingTable routerId "\"auto\""
par DroneNetwork.drones[0].ipv4.routingTable netmaskRoutes "\"*\""
par DroneNetwork.drones[0].ipv4.routingTable forwarding true
par DroneNetwork.drones[0].ipv4.routingTable multicastForwarding false
par DroneNetwork.drones[0].ipv4.routingTable useAdminDist false
par DroneNetwork.drones[0].ipv4.routingTable routingFile "\"\""
par DroneNetwork.drones[0].ipv4.natTable typename "\"inet.networklayer.ipv4.Ipv4NatTable\""
par DroneNetwork.drones[0].ipv4.natTable networkProtocolModule "\"^.ip\""
par DroneNetwork.drones[0].ipv4.natTable config "<config/> at content:1"
par DroneNetwork.drones[0].ipv4.up typename "\"inet.common.MessageDispatcher\""
par DroneNetwork.drones[0].ipv4.up displayStringTextFormat "\"processed %p pk (%l)\""
par DroneNetwork.drones[0].ipv4.up forwardServiceRegistration true
par DroneNetwork.drones[0].ipv4.up forwardProtocolRegistration true
par DroneNetwork.drones[0].ipv4.igmp typename "\"inet.networklayer.ipv4.Igmpv2\""
par DroneNetwork.drones[0].ipv4.igmp interfaceTableModule "\"DroneNetwork.drones[0].interfaceTable\""
par DroneNetwork.drones[0].ipv4.igmp routingTableModule "\"DroneNetwork.drones[0].ipv4.routingTable\""
par DroneNetwork.drones[0].ipv4.igmp crcMode "\"declared\""
attr enum declared,computed
par DroneNetwork.drones[0].ipv4.igmp enabled true
par DroneNetwork.drones[0].ipv4.igmp robustnessVariable 2
par DroneNetwork.drones[0].ipv4.igmp queryInterval 125s
attr unit s
par DroneNetwork.drones[0].ipv4.igmp queryResponseInterval 10s
attr unit s
par DroneNetwork.drones[0].ipv4.igmp groupMembershipInterval 260s
attr unit s
par DroneNetwork.drones[0].ipv4.igmp otherQuerierPresentInterval 255s
attr unit s
par DroneNetwork.drones[0].ipv4.igmp startupQueryInterval 31.25s
attr unit s
par DroneNetwork.drones[0].ipv4.igmp startupQueryCount 2
par DroneNetwork.drones[0].ipv4.igmp lastMemberQueryInterval 1s
attr unit s
par DroneNetwork.drones[0].ipv4.igmp lastMemberQueryCount 2
par DroneNetwork.drones[0].ipv4.igmp unsolicitedReportInterval 10s
attr unit s
par DroneNetwork.drones[0].ipv4.icmp typename "\"inet.networklayer.ipv4.Icmp\""
par DroneNetwork.drones[0].ipv4.icmp interfaceTableModule "\"DroneNetwork.drones[0].interfaceTable\""
par DroneNetwork.drones[0].ipv4.icmp routingTableModule "\"DroneNetwork.drones[0].ipv4.routingTable\""
par DroneNetwork.drones[0].ipv4.icmp crcMode "\"declared\""
attr enum declared,computed
attr mutable ""
par DroneNetwork.drones[0].ipv4.icmp quoteLength 8B
attr mutable ""
attr unit B
par DroneNetwork.drones[0].ipv4.mp typename "\"inet.common.MessageDispatcher\""
par DroneNetwork.drones[0].ipv4.mp displayStringTextFormat "\"processed %p pk (%l)\""
par DroneNetwork.drones[0].ipv4.mp forwardServiceRegistration true
par DroneNetwork.drones[0].ipv4.mp forwardProtocolRegistration true
par DroneNetwork.drones[0].ipv4.ip typename "\"inet.networklayer.ipv4.Ipv4\""
par DroneNetwork.drones[0].ipv4.ip interfaceTableModule "\"DroneNetwork.drones[0].interfaceTable\""
par DroneNetwork.drones[0].ipv4.ip routingTableModule "\"DroneNetwork.drones[0].ipv4.routingTable\""
par DroneNetwork.drones[0].ipv4.ip arpModule "\"DroneNetwork.drones[0].ipv4.arp\""
par DroneNetwork.drones[0].ipv4.ip icmpModule "\"DroneNetwork.drones[0].ipv4.icmp\""
par DroneNetwork.drones[0].ipv4.ip crcMode "\"declared\""
attr enum declared,computed
par DroneNetwork.drones[0].ipv4.ip timeToLive 32
par DroneNetwork.drones[0].ipv4.ip multicastTimeToLive 32
par DroneNetwork.drones[0].ipv4.ip fragmentTimeout 60s
attr unit s
par DroneNetwork.drones[0].ipv4.ip limitedBroadcast false
par DroneNetwork.drones[0].ipv4.ip directBroadcastInterfaces "\"\""
scalar DroneNetwork.drones[0].ipv4.ip packetDropAddressResolutionFailed:count 0
attr interpolationmode none
attr recordingmode count
attr source packetDropReasonIsAddressResolutionFailed(packetDropped)
attr title "packet drop: address resolution failed, count"
scalar DroneNetwork.drones[0].ipv4.ip packetDropAddressResolutionFailed:sum(packetBytes) 0
attr interpolationmode none
attr recordingmode sum(packetBytes)
attr source packetDropReasonIsAddressResolutionFailed(packetDropped)
attr title "packet drop: address resolution failed, sum(packetBytes)"
scalar DroneNetwork.drones[0].ipv4.ip packetDropHopLimitReached:count 0
attr interpolationmode none
attr recordingmode count
attr source packetDropReasonIsHopLimitReached(packetDropped)
attr title "packet drop: hop limit reached, count"
scalar DroneNetwork.drones[0].ipv4.ip packetDropHopLimitReached:sum(packetBytes) 0
attr interpolationmode none
attr recordingmode sum(packetBytes)
attr source packetDropReasonIsHopLimitReached(packetDropped)
attr title "packet drop: hop limit reached, sum(packetBytes)"
scalar DroneNetwork.drones[0].ipv4.ip packetDropForwardingDisabled:count 0
attr interpolationmode none
attr recordingmode count
attr source packetDropReasonIsForwardingDisabled(packetDropped)
attr title "packet drop: forwarding disabled, count"
scalar DroneNetwork.drones[0].ipv4.ip packetDropForwardingDisabled:sum(packetBytes) 0
attr interpolationmode none
attr recordingmode sum(packetBytes)
attr source packetDropReasonIsForwardingDisabled(packetDropped)
attr title "packet drop: forwarding disabled, sum(packetBytes)"
scalar DroneNetwork.drones[0].ipv4.ip packetDropNoInterfaceFound:count 0
attr interpolationmode none
attr recordingmode count
attr source packetDropReasonIsNoInterfaceFound(packetDropped)
attr title "packet drop: no interface found, count"
scalar DroneNetwork.drones[0].ipv4.ip packetDropNoInterfaceFound:sum(packetBytes) 0
attr interpolationmode none
attr recordingmode sum(packetBytes)
attr source packetDropReasonIsNoInterfaceFound(packetDropped)
attr title "packet drop: no interface found, sum(packetBytes)"
scalar DroneNetwork.drones[0].ipv4.ip packetDropNoRouteFound:count 0
attr interpolationmode none
attr recordingmode count
attr source packetDropReasonIsNoRouteFound(packetDropped)
attr title "packet drop: no route found, count"
scalar DroneNetwork.drones[0].ipv4.ip packetDropNoRouteFound:sum(packetBytes) 0
attr interpolationmode none
attr recordingmode sum(packetBytes)
attr source packetDropReasonIsNoRouteFound(packetDropped)
attr title "packet drop: no route found, sum(packetBytes)"
scalar DroneNetwork.drones[0].ipv4.ip packetDropUndefined:count 0
attr interpolationmode none
attr recordingmode count
attr source packetDropReasonIsUndefined(packetDropped)
attr title "packet drop: undefined, count"
scalar DroneNetwork.drones[0].ipv4.ip packetDropUndefined:sum(packetBytes) 0
attr interpolationmode none
attr recordingmode sum(packetBytes)
attr source packetDropReasonIsUndefined(packetDropped)
attr title "packet drop: undefined, sum(packetBytes)"
par DroneNetwork.drones[0].ipv4.arp typename "\"inet.networklayer.arp.ipv4.GlobalArp\""
par DroneNetwork.drones[0].ipv4.arp interfaceTableModule "\"DroneNetwork.drones[0].interfaceTable\""
par DroneNetwork.drones[0].ipv4.arp addressType "\"ipv4\""
attr enum ipv4,ipv6,mac,moduleid,modulepath
par DroneNetwork.drones[0].ipv4.lp typename "\"inet.common.MessageDispatcher\""
par DroneNetwork.drones[0].ipv4.lp displayStringTextFormat "\"processed %p pk (%l)\""
par DroneNetwork.drones[0].ipv4.lp forwardServiceRegistration true
par DroneNetwork.drones[0].ipv4.lp forwardProtocolRegistration true
par DroneNetwork.drones[0].ipv4 typename "\"inet.networklayer.ipv4.Ipv4NetworkLayer\""
par DroneNetwork.drones[0].ipv4 forwarding true
par DroneNetwork.drones[0].ipv4 multicastForwarding false
par DroneNetwork.drones[0].ipv4 interfaceTableModule "\"DroneNetwork.drones[0].interfaceTable\""
par DroneNetwork.drones[0].ipv4 displayStringTextFormat "\"%i\""
par DroneNetwork.drones[0].nl typename "\"inet.common.MessageDispatcher\""
par DroneNetwork.drones[0].nl displayStringTextFormat "\"processed %p pk (%l)\""
par DroneNetwork.drones[0].nl forwardServiceRegistration true
par DroneNetwork.drones[0].nl forwardProtocolRegistration true
par DroneNetwork.drones[0].udp typename "\"inet.transportlayer.udp.Udp\""
par DroneNetwork.drones[0].udp interfaceTableModule "\"DroneNetwork.drones[0].interfaceTable\""
par DroneNetwork.drones[0].udp icmpModule "\"^.ipv4.icmp\""
par DroneNetwork.drones[0].udp icmpv6Module "\"^.ipv6.icmpv6\""
par DroneNetwork.drones[0].udp crcMode "\"declared\""
attr enum disabled,declared,computed
par DroneNetwork.drones[0].udp defaultMulticastLoop true
scalar DroneNetwork.drones[0].udp packetReceived:count 4
attr interpolationmode none
attr recordingmode count
attr source packetReceived
attr title "packets received, count"
scalar DroneNetwork.drones[0].udp packetReceived:sum(packetBytes) 112
attr interpolationmode none
attr recordingmode sum(packetBytes)
attr source packetReceived
attr title "packets received, sum(packetBytes)"
scalar DroneNetwork.drones[0].udp packetSent:count 13
attr interpolationmode none
attr recordingmode count
attr source packetSent
attr title "packets sent, count"
scalar DroneNetwork.drones[0].udp packetSent:sum(packetBytes) 8224
attr interpolationmode none
attr recordingmode sum(packetBytes)
attr source packetSent
attr title "packets sent, sum(packetBytes)"
scalar DroneNetwork.drones[0].udp passedUpPk:count 4
attr interpolationmode none
attr recordingmode count
attr source packetSentToUpper
attr title "packets passed up, count"
scalar DroneNetwork.drones[0].udp droppedPkWrongPort:count 0
attr interpolationmode none
attr recordingmode count
attr source packetDropReasonIsNoPortFound(packetDropped)
attr title "packets dropped (wrong port), count"
scalar DroneNetwork.drones[0].udp droppedPkBadChecksum:count 0
attr interpolationmode none
attr recordingmode count
attr source packetDropReasonIsIncorrectlyReceived(packetDropped)
attr title "packets dropped (checksum error), count"
par DroneNetwork.drones[0].tcp typename "\"inet.transportlayer.tcp.Tcp\""
par DroneNetwork.drones[0].tcp crcMode "\"declared\""
attr enum declared,computed
par DroneNetwork.drones[0].tcp advertisedWindow 7504
par DroneNetwork.drones[0].tcp delayedAcksEnabled false
par DroneNetwork.drones[0].tcp nagleEnabled true
par DroneNetwork.drones[0].tcp limitedTransmitEnabled false
par DroneNetwork.drones[0].tcp increasedIWEnabled false
par DroneNetwork.drones[0].tcp sackSupport false
par DroneNetwork.drones[0].tcp windowScalingSupport false
par DroneNetwork.drones[0].tcp windowScalingFactor -1
par DroneNetwork.drones[0].tcp timestampSupport false
par DroneNetwork.drones[0].tcp mss 536
par DroneNetwork.drones[0].tcp msl 120s
attr unit s
par DroneNetwork.drones[0].tcp tcpAlgorithmClass "\"TcpReno\""
par DroneNetwork.drones[0].tcp useDataNotification false
par DroneNetwork.drones[0].tcp dupthresh 3
par DroneNetwork.drones[0].tcp initialSsthresh 4294967295
par DroneNetwork.drones[0].tcp stopOperationExtraTime 0s
attr unit s
par DroneNetwork.drones[0].tcp stopOperationTimeout 2s
attr unit s
par DroneNetwork.drones[0].tcp ecnWillingness false
par DroneNetwork.drones[0].tcp dctcpGamma 0.0625
par DroneNetwork.drones[0].tn typename "\"inet.common.MessageDispatcher\""
par DroneNetwork.drones[0].tn displayStringTextFormat "\"processed %p pk (%l)\""
par DroneNetwork.drones[0].tn forwardServiceRegistration true
par DroneNetwork.drones[0].tn forwardProtocolRegistration true
par DroneNetwork.drones[0].app[0] typename "\"inet.applications.udpapp.UdpBasicApp\""
par DroneNetwork.drones[0].app[0] interfaceTableModule "\"DroneNetwork.drones[0].interfaceTable\""
par DroneNetwork.drones[0].app[0] clockModule "\"\""
par DroneNetwork.drones[0].app[0] localPort -1
par DroneNetwork.drones[0].app[0] destAddresses "\"drones[1]\""
par DroneNetwork.drones[0].app[0] localAddress "\"\""
par DroneNetwork.drones[0].app[0] packetName "\"UDPData\""
par DroneNetwork.drones[0].app[0] destPort 5000
par DroneNetwork.drones[0].app[0] messageLength 1000B
attr unit B
par DroneNetwork.drones[0].app[0] startTime 3.97937s
attr unit s
par DroneNetwork.drones[0].app[0] stopTime -1s
attr unit s
par DroneNetwork.drones[0].app[0] sendInterval exponential(5s)
attr unit s
par DroneNetwork.drones[0].app[0] timeToLive -1
par DroneNetwork.drones[0].app[0] dontFragment false
par DroneNetwork.drones[0].app[0] dscp -1
par DroneNetwork.drones[0].app[0] tos -1
par DroneNetwork.drones[0].app[0] multicastInterface "\"\""
par DroneNetwork.drones[0].app[0] receiveBroadcast false
par DroneNetwork.drones[0].app[0] joinLocalMulticastGroups false
par DroneNetwork.drones[0].app[0] stopOperationExtraTime -1s
attr unit s
par DroneNetwork.drones[0].app[0] stopOperationTimeout 2s
attr unit s
scalar DroneNetwork.drones[0].app[0] "packets sent" 8
scalar DroneNetwork.drones[0].app[0] "packets received" 0
scalar DroneNetwork.drones[0].app[0] packetReceived:count 0
attr interpolationmode none
attr recordingmode count
attr source packetReceived
attr title "packets received, count"
scalar DroneNetwork.drones[0].app[0] packetReceived:sum(packetBytes) 0
attr interpolationmode none
attr recordingmode sum(packetBytes)
attr source packetReceived
attr title "packets received, sum(packetBytes)"
statistic DroneNetwork.drones[0].app[0] rcvdPkLifetime:stats
field count 0
field mean -nan
field stddev -nan
field min -nan
field max -nan
field sum 0
field sqrsum 0
attr interpolationmode none
attr recordingmode stats
attr source dataAge(packetReceived)
attr title "received packet lifetime"
attr unit s
scalar DroneNetwork.drones[0].app[0] packetSent:count 8
attr interpolationmode none
attr recordingmode count
attr source packetSent
attr title "packets sent, count"
scalar DroneNetwork.drones[0].app[0] packetSent:sum(packetBytes) 8000
attr interpolationmode none
attr recordingmode sum(packetBytes)
attr source packetSent
attr title "packets sent, sum(packetBytes)"
par DroneNetwork.drones[0].at typename "\"inet.common.MessageDispatcher\""
par DroneNetwork.drones[0].at displayStringTextFormat "\"processed %p pk (%l)\""
par DroneNetwork.drones[0].at forwardServiceRegistration true
par DroneNetwork.drones[0].at forwardProtocolRegistration true
par DroneNetwork.drones[0].aodv typename "\"inet.routing.aodv.Aodv\""
par DroneNetwork.drones[0].aodv routingTableModule "\"^.ipv4.routingTable\""
par DroneNetwork.drones[0].aodv interfaceTableModule "\"DroneNetwork.drones[0].interfaceTable\""
par DroneNetwork.drones[0].aodv networkProtocolModule "\"^.ipv4.ip\""
par DroneNetwork.drones[0].aodv askGratuitousRREP false
par DroneNetwork.drones[0].aodv useHelloMessages false
par DroneNetwork.drones[0].aodv useLocalRepair false
par DroneNetwork.drones[0].aodv destinationOnlyFlag false
par DroneNetwork.drones[0].aodv udpPort 654
par DroneNetwork.drones[0].aodv interface "\"wlan0\""
par DroneNetwork.drones[0].aodv maxPeriodicJitter 0.25s
attr unit s
par DroneNetwork.drones[0].aodv periodicJitter "uniform(0s, maxPeriodicJitter)"
attr unit s
par DroneNetwork.drones[0].aodv maxJitter 0.005s
attr unit s
par DroneNetwork.drones[0].aodv jitter "uniform(0ms, maxJitter)"
attr unit s
par DroneNetwork.drones[0].aodv helloInterval 1s
attr unit s
par DroneNetwork.drones[0].aodv allowedHelloLoss 2
par DroneNetwork.drones[0].aodv activeRouteTimeout 3s
attr unit s
par DroneNetwork.drones[0].aodv netDiameter 35
par DroneNetwork.drones[0].aodv nodeTraversalTime 0.04s
attr unit s
par DroneNetwork.drones[0].aodv rerrRatelimit 10
par DroneNetwork.drones[0].aodv rreqRetries 2
par DroneNetwork.drones[0].aodv rreqRatelimit 10
par DroneNetwork.drones[0].aodv timeoutBuffer 2
par DroneNetwork.drones[0].aodv ttlStart 2
par DroneNetwork.drones[0].aodv ttlIncrement 2
par DroneNetwork.drones[0].aodv ttlThreshold 7
par DroneNetwork.drones[0].aodv localAddTTL 2
par DroneNetwork.drones[0].aodv myRouteTimeout 6s
attr unit s
par DroneNetwork.drones[0].aodv deletePeriod 15s
attr unit s
par DroneNetwork.drones[0].aodv blacklistTimeout 5.6s
attr unit s
par DroneNetwork.drones[0].aodv netTraversalTime 2.8s
attr unit s
par DroneNetwork.drones[0].aodv nextHopWait 0.05s
attr unit s
par DroneNetwork.drones[0].aodv pathDiscoveryTime 5.6s
attr unit s
par DroneNetwork.drones[0].droneControl typename "\"Physical_layer.Drone_block.DroneControl\""
par DroneNetwork.drones[0].droneControl Drone_ID 1
par DroneNetwork.drones[0].droneControl number_of_rotors 4
par DroneNetwork.drones[0].droneControl motor_efficiency 0.6
par DroneNetwork.drones[0].droneControl mass_of_drone 1.5kg
attr unit kg
par DroneNetwork.drones[0].droneControl additional_mass 0kg
attr unit kg
par DroneNetwork.drones[0].droneControl frequencyHz 24000Hz
attr unit Hz
par DroneNetwork.drones[0].droneControl antena_power 0.5J
attr unit J
par DroneNetwork.drones[0].droneControl sensor_power 0.7J
attr unit J
par DroneNetwork.drones[0].droneControl additional_power 0J
attr unit J
par DroneNetwork.drones[0].droneControl battery_capacity 8000mAh
attr unit mAh
par DroneNetwork.drones[0].droneControl battery_remain 8000mAh
attr unit mAh
par DroneNetwork.drones[0].droneControl battery_voltage 14.88V
attr unit V
par DroneNetwork.drones[0].droneControl drone_size 1m
attr unit m
par DroneNetwork.drones[0].droneControl acceleration 0a
attr unit a
par DroneNetwork.drones[0].droneControl x_velocity 0ms
attr unit ms
par DroneNetwork.drones[0].droneControl y_velocity 0ms
attr unit ms
par DroneNetwork.drones[0].droneControl z_velocity 0ms
attr unit ms
par DroneNetwork.drones[0] typename "\"Physical_layer.Drone_block.Drone\""
par DroneNetwork.drones[0] hasStatus false
par DroneNetwork.drones[0] osgModel "\"\""
par DroneNetwork.drones[0] osgModelColor "\"\""
par DroneNetwork.drones[0] canvasImage "\"\""
par DroneNetwork.drones[0] canvasImageColor "\"\""
par DroneNetwork.drones[0] recordPcap false
par DroneNetwork.drones[0] numPcapRecorders 0
par DroneNetwork.drones[0] numLoInterfaces 1
par DroneNetwork.drones[0] numWlanInterfaces 1
par DroneNetwork.drones[0] numEthInterfaces 0
par DroneNetwork.drones[0] numPppInterfaces 0
par DroneNetwork.drones[0] numTunInterfaces 0
par DroneNetwork.drones[0] numVirtInterfaces 0
par DroneNetwork.drones[0] fcsMode "\"declared\""
attr enum declared,computed
par DroneNetwork.drones[0] hasIpv4 true
par DroneNetwork.drones[0] hasIpv6 false
par DroneNetwork.drones[0] hasGn false
par DroneNetwork.drones[0] forwarding true
par DroneNetwork.drones[0] multicastForwarding false
par DroneNetwork.drones[0] hasUdp true
par DroneNetwork.drones[0] hasTcp true
par DroneNetwork.drones[0] hasSctp false
par DroneNetwork.drones[0] numApps 1
par DroneNetwork.drones[0] Drone_ID 1
par DroneNetwork.drones[1].radioIn[0].channel typename "\"ned.IdealChannel\""
par DroneNetwork.drones[1].mobility typename "\"inet.mobility.static.StationaryMobility\""
par DroneNetwork.drones[1].mobility subjectModule "\"^\""
par DroneNetwork.drones[1].mobility coordinateSystemModule "\"\""
par DroneNetwork.drones[1].mobility displayStringTextFormat "\"p: %p\\nv: %v\""
attr mutable ""
par DroneNetwork.drones[1].mobility updateDisplayString true
par DroneNetwork.drones[1].mobility constraintAreaMinX "-inf m"
attr unit m
par DroneNetwork.drones[1].mobility constraintAreaMinY "-inf m"
attr unit m
par DroneNetwork.drones[1].mobility constraintAreaMinZ "-inf m"
attr unit m
par DroneNetwork.drones[1].mobility constraintAreaMaxX "inf m"
attr unit m
par DroneNetwork.drones[1].mobility constraintAreaMaxY "inf m"
attr unit m
par DroneNetwork.drones[1].mobility constraintAreaMaxZ "inf m"
attr unit m
par DroneNetwork.drones[1].mobility initialX 300m
attr unit m
par DroneNetwork.drones[1].mobility initialY 200m
attr unit m
par DroneNetwork.drones[1].mobility initialZ 0m
attr unit m
par DroneNetwork.drones[1].mobility initialLatitude "nan deg"
attr unit deg
par DroneNetwork.drones[1].mobility initialLongitude "nan deg"
attr unit deg
par DroneNetwork.drones[1].mobility initialAltitude 0m
attr unit m
par DroneNetwork.drones[1].mobility initialHeading 0deg
attr unit deg
par DroneNetwork.drones[1].mobility initialElevation 0deg
attr unit deg
par DroneNetwork.drones[1].mobility initialBank 0deg
attr unit deg
par DroneNetwork.drones[1].mobility initFromDisplayString false
par DroneNetwork.drones[1].mobility updateFromDisplayString false
par DroneNetwork.drones[1].interfaceTable typename "\"inet.networklayer.common.InterfaceTable\""
par DroneNetwork.drones[1].interfaceTable displayAddresses false
par DroneNetwork.drones[1].cb typename "\"inet.common.MessageDispatcher\""
par DroneNetwork.drones[1].cb displayStringTextFormat "\"processed %p pk (%l)\""
par DroneNetwork.drones[1].cb forwardServiceRegistration true
par DroneNetwork.drones[1].cb forwardProtocolRegistration true
par DroneNetwork.drones[1].bl typename "\"inet.common.MessageDispatcher\""
par DroneNetwork.drones[1].bl displayStringTextFormat "\"processed %p pk (%l)\""
par DroneNetwork.drones[1].bl forwardServiceRegistration true
par DroneNetwork.drones[1].bl forwardProtocolRegistration true
par DroneNetwork.drones[1].li typename "\"inet.common.MessageDispatcher\""
par DroneNetwork.drones[1].li displayStringTextFormat "\"processed %p pk (%l)\""
par DroneNetwork.drones[1].li forwardServiceRegistration true
par DroneNetwork.drones[1].li forwardProtocolRegistration true
par DroneNetwork.drones[1].lo[0].upperLayerIn.channel typename "\"ned.IdealChannel\""
par DroneNetwork.drones[1].lo[0].lo.upperLayerOut.channel typename "\"ned.IdealChannel\""
par DroneNetwork.drones[1].lo[0].lo typename "\"inet.linklayer.loopback.Loopback\""
par DroneNetwork.drones[1].lo[0].lo interfaceTableModule "\"DroneNetwork.drones[1].interfaceTable\""
par DroneNetwork.drones[1].lo[0].lo mtu 4470B
attr unit B
scalar DroneNetwork.drones[1].lo[0].lo rcvdPkFromHl:count 0
attr interpolationmode none
attr recordingmode count
attr source packetReceivedFromUpper
attr title "packets received from higher layer, count"
scalar DroneNetwork.drones[1].lo[0].lo rcvdPkFromHl:sum(packetBytes) 0
attr interpolationmode none
attr recordingmode sum(packetBytes)
attr source packetReceivedFromUpper
attr title "packets received from higher layer, sum(packetBytes)"
scalar DroneNetwork.drones[1].lo[0].lo passedUpPk:count 0
attr interpolationmode none
attr recordingmode count
attr source packetSentToUpper
attr title "packets passed to higher layer, count"
scalar DroneNetwork.drones[1].lo[0].lo passedUpPk:sum(packetBytes) 0
attr interpolationmode none
attr recordingmode sum(packetBytes)
attr source packetSentToUpper
attr title "packets passed to higher layer, sum(packetBytes)"
par DroneNetwork.drones[1].lo[0] typename "\"inet.linklayer.loopback.LoopbackInterface\""
par DroneNetwork.drones[1].lo[0] displayStringTextFormat "\"%a (%i)\\n%m\""
par DroneNetwork.drones[1].lo[0] recordPcap false
par DroneNetwork.drones[1].lo[0] numPcapRecorders 0
par DroneNetwork.drones[1].lo[0] interfaceTableModule "\"DroneNetwork.drones[1].interfaceTable\""
scalar DroneNetwork.drones[1].lo[0] packetDropInterfaceDown:count 0
attr interpolationmode none
attr recordingmode count
attr source packetDropReasonIsInterfaceDown(packetDropped)
attr title "packet drops: interface down, count"
scalar DroneNetwork.drones[1].lo[0] packetDropInterfaceDown:sum(packetBytes) 0
attr interpolationmode none
attr recordingmode sum(packetBytes)
attr source packetDropReasonIsInterfaceDown(packetDropped)
attr title "packet drops: interface down, sum(packetBytes)"
scalar DroneNetwork.drones[1].lo[0] packetDropNoCarrier:count 0
attr interpolationmode none
attr recordingmode count
attr source packetDropReasonIsNoCarrier(packetDropped)
attr title "packet drops: no carrier, count"
scalar DroneNetwork.drones[1].lo[0] packetDropNoCarrier:sum(packetBytes) 0
attr interpolationmode none
attr recordingmode sum(packetBytes)
attr source packetDropReasonIsNoCarrier(packetDropped)
attr title "packet drops: no carrier, sum(packetBytes)"
par DroneNetwork.drones[1].wlan[0].upperLayerIn.channel typename "\"ned.IdealChannel\""
par DroneNetwork.drones[1].wlan[0].radioIn.channel typename "\"ned.IdealChannel\""
par DroneNetwork.drones[1].wlan[0].mac.upperLayerOut.channel typename "\"ned.IdealChannel\""
par DroneNetwork.drones[1].wlan[0].queue typename "\"inet.queueing.queue.DropTailQueue\""
par DroneNetwork.drones[1].wlan[0].queue displayStringTextFormat "\"contains %p pk (%l) pushed %u\\npulled %o removed %r dropped %d\""
par DroneNetwork.drones[1].wlan[0].queue packetCapacity 100
par DroneNetwork.drones[1].wlan[0].queue dataCapacity -1b
attr unit b
par DroneNetwork.drones[1].wlan[0].queue dropperClass "\"inet::queueing::PacketAtCollectionEndDropper\""
par DroneNetwork.drones[1].wlan[0].queue comparatorClass "\"\""
par DroneNetwork.drones[1].wlan[0].queue bufferModule "\"\""
scalar DroneNetwork.drones[1].wlan[0].queue queueLength:last 0
attr autoWarmupFilter false
attr interpolationmode sample-hold
attr recordingmode last
attr source "warmup(atomic(constant0(packetPushEnded) + count(packetPushStarted) - count(packetPulled) - count(packetRemoved) - count(packetDropped)))"
attr title "queue length, last"
attr unit pk
scalar DroneNetwork.drones[1].wlan[0].queue queueLength:max 0
attr autoWarmupFilter false
attr interpolationmode sample-hold
attr recordingmode max
attr source "warmup(atomic(constant0(packetPushEnded) + count(packetPushStarted) - count(packetPulled) - count(packetRemoved) - count(packetDropped)))"
attr title "queue length, max"
attr unit pk
scalar DroneNetwork.drones[1].wlan[0].queue queueLength:timeavg 0
attr autoWarmupFilter false
attr interpolationmode sample-hold
attr recordingmode timeavg
attr source "warmup(atomic(constant0(packetPushEnded) + count(packetPushStarted) - count(packetPulled) - count(packetRemoved) - count(packetDropped)))"
attr title "queue length, timeavg"
attr unit pk
scalar DroneNetwork.drones[1].wlan[0].queue queueBitLength:last 0
attr autoWarmupFilter false
attr interpolationmode sample-hold
attr recordingmode last
attr source "warmup(atomic(constant0(packetPushEnded) + sum(packetLength(packetPushStarted)) - sum(packetLength(packetPulled)) - sum(packetLength(packetRemoved)) - sum(packetLength(packetDropped))))"
attr title "queue bit length, last"
attr unit b
scalar DroneNetwork.drones[1].wlan[0].queue queueBitLength:max 0
attr autoWarmupFilter false
attr interpolationmode sample-hold
attr recordingmode max
attr source "warmup(atomic(constant0(packetPushEnded) + sum(packetLength(packetPushStarted)) - sum(packetLength(packetPulled)) - sum(packetLength(packetRemoved)) - sum(packetLength(packetDropped))))"
attr title "queue bit length, max"
attr unit b
scalar DroneNetwork.drones[1].wlan[0].queue queueBitLength:timeavg 0
attr autoWarmupFilter false
attr interpolationmode sample-hold
attr recordingmode timeavg
attr source "warmup(atomic(constant0(packetPushEnded) + sum(packetLength(packetPushStarted)) - sum(packetLength(packetPulled)) - sum(packetLength(packetRemoved)) - sum(packetLength(packetDropped))))"
attr title "queue bit length, timeavg"
attr unit b
statistic DroneNetwork.drones[1].wlan[0].queue queueingTime:histogram
field count 4
field mean 0
field stddev 0
field min 0
field max 0
field sum 0
field sqrsum 0
attr interpolationmode none
attr recordingmode histogram
attr source queueingTime(packetPulled)
attr title "queueing times"
attr unit s
bin	-inf	0
bin	-0.5	0
bin	-0.48	0
bin	-0.46	0
bin	-0.44	0
bin	-0.42	0
bin	-0.4	0
bin	-0.38	0
bin	-0.36	0
bin	-0.34	0
bin	-0.32	0
bin	-0.3	0
bin	-0.28	0
bin	-0.26	0
bin	-0.24	0
bin	-0.22	0
bin	-0.2	0
bin	-0.18	0
bin	-0.16	0
bin	-0.14	0
bin	-0.12	0
bin	-0.1	0
bin	-0.08	0
bin	-0.06	0
bin	-0.04	0
bin	-0.02	0
bin	0	4
bin	0.02	0
bin	0.04	0
bin	0.06	0
bin	0.08	0
bin	0.1	0
bin	0.12	0
bin	0.14	0
bin	0.16	0
bin	0.18	0
bin	0.2	0
bin	0.22	0
bin	0.24	0
bin	0.26	0
bin	0.28	0
bin	0.3	0
bin	0.32	0
bin	0.34	0
bin	0.36	0
bin	0.38	0
bin	0.4	0
bin	0.42	0
bin	0.44	0
bin	0.46	0
bin	0.48	0
bin	0.5	0
scalar DroneNetwork.drones[1].wlan[0].queue outgoingPackets:count 4
attr recordingmode count
attr source packetPulled
attr title "outgoing packets, count"
attr unit pk
scalar DroneNetwork.drones[1].wlan[0].queue outgoingPacketLengths:sum 1536
attr interpolationmode none
attr recordingmode sum
attr source packetLength(packetPulled)
attr title "outgoing packet lengths, sum"
attr unit b
statistic DroneNetwork.drones[1].wlan[0].queue outgoingPacketLengths:histogram
field count 4
field mean 384
field stddev 0
field min 384
field max 384
field sum 1536
field sqrsum 589824
attr interpolationmode none
attr recordingmode histogram
attr source packetLength(packetPulled)
attr title "outgoing packet lengths"
attr unit b
bin	-inf	0
bin	383	0
bin	384	4
bin	385	0
statistic DroneNetwork.drones[1].wlan[0].queue flowQueueingTime:histogram
field count 0
field mean -nan
field stddev -nan
field min -nan
field max -nan
field sum 0
field sqrsum 0
attr interpolationmode none
attr recordingmode histogram
attr source queueingTime(demuxFlow(packetPulled))
attr title "flow queueing times"
attr unit s
bin	-inf	0
bin	0	0
bin	1	0
scalar DroneNetwork.drones[1].wlan[0].queue incomingPackets:count 4
attr recordingmode count
attr source packetPushStarted
attr title "incoming packets, count"
attr unit pk
scalar DroneNetwork.drones[1].wlan[0].queue incomingPacketLengths:sum 1536
attr interpolationmode none
attr recordingmode sum
attr source packetLength(packetPushStarted)
attr title "incoming packet lengths, sum"
attr unit b
statistic DroneNetwork.drones[1].wlan[0].queue incomingPacketLengths:histogram
field count 4
field mean 384
field stddev 0
field min 384
field max 384
field sum 1536
field sqrsum 589824
attr interpolationmode none
attr recordingmode histogram
attr source packetLength(packetPushStarted)
attr title "incoming packet lengths"
attr unit b
bin	-inf	0
bin	383	0
bin	384	4
bin	385	0
scalar DroneNetwork.drones[1].wlan[0].queue droppedPacketsQueueOverflow:count 0
attr interpolationmode none
attr recordingmode count
attr source packetDropReasonIsQueueOverflow(packetDropped)
attr title "dropped packets: queue overflow, count"
attr unit pk
scalar DroneNetwork.drones[1].wlan[0].queue droppedPacketLengthsQueueOverflow:sum 0
attr interpolationmode none
attr recordingmode sum
attr source packetLength(packetDropReasonIsQueueOverflow(packetDropped))
attr title "dropped packet lengths: queue overflow, sum"
attr unit b
par DroneNetwork.drones[1].wlan[0].mac typename "\"inet.linklayer.acking.AckingMac\""
par DroneNetwork.drones[1].wlan[0].mac interfaceTableModule "\"DroneNetwork.drones[1].interfaceTable\""
par DroneNetwork.drones[1].wlan[0].mac address "\"auto\""
attr mutable ""
par DroneNetwork.drones[1].wlan[0].mac bitrate 1e+06bps
attr unit bps
par DroneNetwork.drones[1].wlan[0].mac mtu 4470B
attr unit B
par DroneNetwork.drones[1].wlan[0].mac headerLength 23B
attr unit B
par DroneNetwork.drones[1].wlan[0].mac promiscuous false
par DroneNetwork.drones[1].wlan[0].mac fullDuplex false
par DroneNetwork.drones[1].wlan[0].mac useAck false
par DroneNetwork.drones[1].wlan[0].mac ackTimeout 0.1s
attr unit s
scalar DroneNetwork.drones[1].wlan[0].mac rcvdPkFromLl:count 11
attr interpolationmode none
attr recordingmode count
attr source packetReceivedFromLower
attr title "packets received from lower layer, count"
scalar DroneNetwork.drones[1].wlan[0].mac rcvdPkFromLl:sum(packetBytes) 7657
attr interpolationmode none
attr recordingmode sum(packetBytes)
attr source packetReceivedFromLower
attr title "packets received from lower layer, sum(packetBytes)"
scalar DroneNetwork.drones[1].wlan[0].mac sentDownPk:count 4
attr interpolationmode none
attr recordingmode count
attr source packetSentToLower
attr title "packets sent to lower layer, count"
scalar DroneNetwork.drones[1].wlan[0].mac sentDownPk:sum(packetBytes) 284
attr interpolationmode none
attr recordingmode sum(packetBytes)
attr source packetSentToLower
attr title "packets sent to lower layer, sum(packetBytes)"
scalar DroneNetwork.drones[1].wlan[0].mac rcvdPkFromHl:count 4
attr interpolationmode none
attr recordingmode count
attr source packetReceivedFromUpper
attr title "packets received from higher layer, count"
scalar DroneNetwork.drones[1].wlan[0].mac rcvdPkFromHl:sum(packetBytes) 192
attr interpolationmode none
attr recordingmode sum(packetBytes)
attr source packetReceivedFromUpper
attr title "packets received from higher layer, sum(packetBytes)"
scalar DroneNetwork.drones[1].wlan[0].mac passedUpPk:count 11
attr interpolationmode none
attr recordingmode count
attr source packetSentToUpper
attr title "packets passed to higher layer, count"
scalar DroneNetwork.drones[1].wlan[0].mac passedUpPk:sum(packetBytes) 7404
attr interpolationmode none
attr recordingmode sum(packetBytes)
attr source packetSentToUpper
attr title "packets passed to higher layer, sum(packetBytes)"
scalar DroneNetwork.drones[1].wlan[0].mac packetDropIncorrectlyReceived:count 0
attr interpolationmode none
attr recordingmode count
attr source packetDropReasonIsIncorrectlyReceived(packetDropped)
attr title "packet drop: incorrectly received, count"
scalar DroneNetwork.drones[1].wlan[0].mac packetDropIncorrectlyReceived:sum(packetBytes) 0
attr interpolationmode none
attr recordingmode sum(packetBytes)
attr source packetDropReasonIsIncorrectlyReceived(packetDropped)
attr title "packet drop: incorrectly received, sum(packetBytes)"
scalar DroneNetwork.drones[1].wlan[0].mac packetDropInterfaceDown:count 0
attr interpolationmode none
attr recordingmode count
attr source packetDropReasonIsInterfaceDown(packetDropped)
attr title "packet drop: interface down, count"
scalar DroneNetwork.drones[1].wlan[0].mac packetDropInterfaceDown:sum(packetBytes) 0
attr interpolationmode none
attr recordingmode sum(packetBytes)
attr source packetDropReasonIsInterfaceDown(packetDropped)
attr title "packet drop: interface down, sum(packetBytes)"
scalar DroneNetwork.drones[1].wlan[0].mac packetDropNotAddressedToUs:count 0
attr interpolationmode none
attr recordingmode count
attr source packetDropReasonIsNotAddressedToUs(packetDropped)
attr title "packet drop: not addressed to us, count"
scalar DroneNetwork.drones[1].wlan[0].mac packetDropNotAddressedToUs:sum(packetBytes) 0
attr interpolationmode none
attr recordingmode sum(packetBytes)
attr source packetDropReasonIsNotAddressedToUs(packetDropped)
attr title "packet drop: not addressed to us, sum(packetBytes)"
scalar DroneNetwork.drones[1].wlan[0].mac linkBroken:count 0
attr interpolationmode none
attr recordingmode count
attr source linkBroken
attr title "link break, count"
par DroneNetwork.drones[1].wlan[0].radio.antenna typename "\"inet.physicallayer.wireless.common.antenna.IsotropicAntenna\""
par DroneNetwork.drones[1].wlan[0].radio.antenna mobilityModule "\"^.^.^.mobility\""
par DroneNetwork.drones[1].wlan[0].radio.antenna numAntennas 1
par DroneNetwork.drones[1].wlan[0].radio.transmitter typename "\"inet.physicallayer.wireless.unitdisk.UnitDiskTransmitter\""
par DroneNetwork.drones[1].wlan[0].radio.transmitter preambleDuration 0s
attr unit s
par DroneNetwork.drones[1].wlan[0].radio.transmitter headerLength 96b
attr unit b
par DroneNetwork.drones[1].wlan[0].radio.transmitter bitrate 1e+06bps
attr unit bps
par DroneNetwork.drones[1].wlan[0].radio.transmitter communicationRange 500m
attr unit m
par DroneNetwork.drones[1].wlan[0].radio.transmitter interferenceRange 500m
attr unit m
par DroneNetwork.drones[1].wlan[0].radio.transmitter detectionRange 500m
attr unit m
par DroneNetwork.drones[1].wlan[0].radio.receiver typename "\"inet.physicallayer.wireless.unitdisk.UnitDiskReceiver\""
par DroneNetwork.drones[1].wlan[0].radio.receiver ignoreInterference true
par DroneNetwork.drones[1].wlan[0].radio typename "\"inet.physicallayer.wireless.unitdisk.UnitDiskRadio\""
par DroneNetwork.drones[1].wlan[0].radio radioMediumModule "\"radioMedium\""
par DroneNetwork.drones[1].wlan[0].radio energySourceModule "\"\""
par DroneNetwork.drones[1].wlan[0].radio initialRadioMode "\"off\""
attr enum off,sleep,receiver,transmitter,transceiver
par DroneNetwork.drones[1].wlan[0].radio switchingTimes "\"ms 0 0 0 0 0 0 0 0 0 0 0 0 0 0 0 0 0 0 0 0 0 0 0 0 0\""
par DroneNetwork.drones[1].wlan[0].radio sendRawBytes false
par DroneNetwork.drones[1].wlan[0].radio separateTransmissionParts false
par DroneNetwork.drones[1].wlan[0].radio separateReceptionParts false
par DroneNetwork.drones[1].wlan[0].radio displayCommunicationRange false
par DroneNetwork.drones[1].wlan[0].radio displayInterferenceRange false
scalar DroneNetwork.drones[1].wlan[0].radio radioMode:count 11
attr interpolationmode sample-hold
attr recordingmode count
attr source radioModeChanged
attr title "Radio mode, count"
scalar DroneNetwork.drones[1].wlan[0].radio receptionState:count 31
attr interpolationmode sample-hold
attr recordingmode count
attr source receptionStateChanged
attr title "Radio reception state, count"
scalar DroneNetwork.drones[1].wlan[0].radio transmissionState:count 16
attr interpolationmode sample-hold
attr recordingmode count
attr source transmissionStateChanged
attr title "Radio transmission state, count"
statistic DroneNetwork.drones[1].wlan[0].radio minSnir:histogram
field count 0
field mean -nan
field stddev -nan
field min -nan
field max -nan
field sum 0
field sqrsum 0
attr recordingmode histogram
attr source minimumSnir(packetSentToUpper)
attr title "Min SNIR"
bin	-inf	0
bin	0	0
bin	1	0
statistic DroneNetwork.drones[1].wlan[0].radio packetErrorRate:histogram
field count 11
field mean 0.36363636363636
field stddev 0.50452497910951
field min 0
field max 1
field sum 4
field sqrsum 4
attr recordingmode histogram
attr source packetErrorRate(packetSentToUpper)
attr title "Packet error rate"
bin	-inf	0
bin	0	7
bin	1	4
bin	2	0
statistic DroneNetwork.drones[1].wlan[0].radio bitErrorRate:histogram
field count 11
field mean 0.36363636363636
field stddev 0.50452497910951
field min 0
field max 1
field sum 4
field sqrsum 4
attr recordingmode histogram
attr source bitErrorRate(packetSentToUpper)
attr title "Bit error rate"
bin	-inf	0
bin	0	7
bin	1	4
bin	2	0
statistic DroneNetwork.drones[1].wlan[0].radio symbolErrorRate:histogram
field count 11
field mean 0.36363636363636
field stddev 0.50452497910951
field min 0
field max 1
field sum 4
field sqrsum 4
attr recordingmode histogram
attr source symbolErrorRate(packetSentToUpper)
attr title "Symbol error rate"
bin	-inf	0
bin	0	7
bin	1	4
bin	2	0
par DroneNetwork.drones[1].wlan[0] typename "\"inet.linklayer.acking.AckingWirelessInterface\""
par DroneNetwork.drones[1].wlan[0] displayStringTextFormat "\"%a (%i)\\n%m\""
par DroneNetwork.drones[1].wlan[0] recordPcap false
par DroneNetwork.drones[1].wlan[0] numPcapRecorders 0
par DroneNetwork.drones[1].wlan[0] interfaceTableModule "\"DroneNetwork.drones[1].interfaceTable\""
par DroneNetwork.drones[1].wlan[0] energySourceModule "\"\""
par DroneNetwork.drones[1].wlan[0] bitrate 1e+06bps
attr unit bps
scalar DroneNetwork.drones[1].wlan[0] packetDropInterfaceDown:count 0
attr interpolationmode none
attr recordingmode count
attr source packetDropReasonIsInterfaceDown(packetDropped)
attr title "packet drops: interface down, count"
scalar DroneNetwork.drones[1].wlan[0] packetDropInterfaceDown:sum(packetBytes) 0
attr interpolationmode none
attr recordingmode sum(packetBytes)
attr source packetDropReasonIsInterfaceDown(packetDropped)
attr title "packet drops: interface down, sum(packetBytes)"
scalar DroneNetwork.drones[1].wlan[0] packetDropNoCarrier:count 0
attr interpolationmode none
attr recordingmode count
attr source packetDropReasonIsNoCarrier(packetDropped)
attr title "packet drops: no carrier, count"
scalar DroneNetwork.drones[1].wlan[0] packetDropNoCarrier:sum(packetBytes) 0
attr interpolationmode none
attr recordingmode sum(packetBytes)
attr source packetDropReasonIsNoCarrier(packetDropped)
attr title "packet drops: no carrier, sum(packetBytes)"
par DroneNetwork.drones[1].ipv4.transportIn.channel typename "\"ned.IdealChannel\""
par DroneNetwork.drones[1].ipv4.up.out[0].channel typename "\"ned.IdealChannel\""
par DroneNetwork.drones[1].ipv4.lp.out[2].channel typename "\"ned.IdealChannel\""
par DroneNetwork.drones[1].ipv4.ifIn.channel typename "\"ned.IdealChannel\""
par DroneNetwork.drones[1].ipv4.configurator typename "\"inet.networklayer.configurator.ipv4.Ipv4NodeConfigurator\""
par DroneNetwork.drones[1].ipv4.configurator interfaceTableModule "\"DroneNetwork.drones[1].interfaceTable\""
par DroneNetwork.drones[1].ipv4.configurator routingTableModule "\"DroneNetwork.drones[1].ipv4.routingTable\""
par DroneNetwork.drones[1].ipv4.configurator networkConfiguratorModule "\"configurator\""
par DroneNetwork.drones[1].ipv4.configurator configureRoutingTable true
par DroneNetwork.drones[1].ipv4.routingTable typename "\"inet.networklayer.ipv4.Ipv4RoutingTable\""
par DroneNetwork.drones[1].ipv4.routingTable interfaceTableModule "\"DroneNetwork.drones[1].interfaceTable\""
par DroneNetwork.drones[1].ipv4.routingTable routerId "\"auto\""
par DroneNetwork.drones[1].ipv4.routingTable netmaskRoutes "\"*\""
par DroneNetwork.drones[1].ipv4.routingTable forwarding true
par DroneNetwork.drones[1].ipv4.routingTable multicastForwarding false
par DroneNetwork.drones[1].ipv4.routingTable useAdminDist false
par DroneNetwork.drones[1].ipv4.routingTable routingFile "\"\""
par DroneNetwork.drones[1].ipv4.natTable typename "\"inet.networklayer.ipv4.Ipv4NatTable\""
par DroneNetwork.drones[1].ipv4.natTable networkProtocolModule "\"^.ip\""
par DroneNetwork.drones[1].ipv4.natTable config "<config/> at content:1"
par DroneNetwork.drones[1].ipv4.up typename "\"inet.common.MessageDispatcher\""
par DroneNetwork.drones[1].ipv4.up displayStringTextFormat "\"processed %p pk (%l)\""
par DroneNetwork.drones[1].ipv4.up forwardServiceRegistration true
par DroneNetwork.drones[1].ipv4.up forwardProtocolRegistration true
par DroneNetwork.drones[1].ipv4.igmp typename "\"inet.networklayer.ipv4.Igmpv2\""
par DroneNetwork.drones[1].ipv4.igmp interfaceTableModule "\"DroneNetwork.drones[1].interfaceTable\""
par DroneNetwork.drones[1].ipv4.igmp routingTableModule "\"DroneNetwork.drones[1].ipv4.routingTable\""
par DroneNetwork.drones[1].ipv4.igmp crcMode "\"declared\""
attr enum declared,computed
par DroneNetwork.drones[1].ipv4.igmp enabled true
par DroneNetwork.drones[1].ipv4.igmp robustnessVariable 2
par DroneNetwork.drones[1].ipv4.igmp queryInterval 125s
attr unit s
par DroneNetwork.drones[1].ipv4.igmp queryResponseInterval 10s
attr unit s
par DroneNetwork.drones[1].ipv4.igmp groupMembershipInterval 260s
attr unit s
par DroneNetwork.drones[1].ipv4.igmp otherQuerierPresentInterval 255s
attr unit s
par DroneNetwork.drones[1].ipv4.igmp startupQueryInterval 31.25s
attr unit s
par DroneNetwork.drones[1].ipv4.igmp startupQueryCount 2
par DroneNetwork.drones[1].ipv4.igmp lastMemberQueryInterval 1s
attr unit s
par DroneNetwork.drones[1].ipv4.igmp lastMemberQueryCount 2
par DroneNetwork.drones[1].ipv4.igmp unsolicitedReportInterval 10s
attr unit s
par DroneNetwork.drones[1].ipv4.icmp typename "\"inet.networklayer.ipv4.Icmp\""
par DroneNetwork.drones[1].ipv4.icmp interfaceTableModule "\"DroneNetwork.drones[1].interfaceTable\""
par DroneNetwork.drones[1].ipv4.icmp routingTableModule "\"DroneNetwork.drones[1].ipv4.routingTable\""
par DroneNetwork.drones[1].ipv4.icmp crcMode "\"declared\""
attr enum declared,computed
attr mutable ""
par DroneNetwork.drones[1].ipv4.icmp quoteLength 8B
attr mutable ""
attr unit B
par DroneNetwork.drones[1].ipv4.mp typename "\"inet.common.MessageDispatcher\""
par DroneNetwork.drones[1].ipv4.mp displayStringTextFormat "\"processed %p pk (%l)\""
par DroneNetwork.drones[1].ipv4.mp forwardServiceRegistration true
par DroneNetwork.drones[1].ipv4.mp forwardProtocolRegistration true
par DroneNetwork.drones[1].ipv4.ip typename "\"inet.networklayer.ipv4.Ipv4\""
par DroneNetwork.drones[1].ipv4.ip interfaceTableModule "\"DroneNetwork.drones[1].interfaceTable\""
par DroneNetwork.drones[1].ipv4.ip routingTableModule "\"DroneNetwork.drones[1].ipv4.routingTable\""
par DroneNetwork.drones[1].ipv4.ip arpModule "\"DroneNetwork.drones[1].ipv4.arp\""
par DroneNetwork.drones[1].ipv4.ip icmpModule "\"DroneNetwork.drones[1].ipv4.icmp\""
par DroneNetwork.drones[1].ipv4.ip crcMode "\"declared\""
attr enum declared,computed
par DroneNetwork.drones[1].ipv4.ip timeToLive 32
par DroneNetwork.drones[1].ipv4.ip multicastTimeToLive 32
par DroneNetwork.drones[1].ipv4.ip fragmentTimeout 60s
attr unit s
par DroneNetwork.drones[1].ipv4.ip limitedBroadcast false
par DroneNetwork.drones[1].ipv4.ip directBroadcastInterfaces "\"\""
scalar DroneNetwork.drones[1].ipv4.ip packetDropAddressResolutionFailed:count 0
attr interpolationmode none
attr recordingmode count
attr source packetDropReasonIsAddressResolutionFailed(packetDropped)
attr title "packet drop: address resolution failed, count"
scalar DroneNetwork.drones[1].ipv4.ip packetDropAddressResolutionFailed:sum(packetBytes) 0
attr interpolationmode none
attr recordingmode sum(packetBytes)
attr source packetDropReasonIsAddressResolutionFailed(packetDropped)
attr title "packet drop: address resolution failed, sum(packetBytes)"
scalar DroneNetwork.drones[1].ipv4.ip packetDropHopLimitReached:count 0
attr interpolationmode none
attr recordingmode count
attr source packetDropReasonIsHopLimitReached(packetDropped)
attr title "packet drop: hop limit reached, count"
scalar DroneNetwork.drones[1].ipv4.ip packetDropHopLimitReached:sum(packetBytes) 0
attr interpolationmode none
attr recordingmode sum(packetBytes)
attr source packetDropReasonIsHopLimitReached(packetDropped)
attr title "packet drop: hop limit reached, sum(packetBytes)"
scalar DroneNetwork.drones[1].ipv4.ip packetDropForwardingDisabled:count 0
attr interpolationmode none
attr recordingmode count
attr source packetDropReasonIsForwardingDisabled(packetDropped)
attr title "packet drop: forwarding disabled, count"
scalar DroneNetwork.drones[1].ipv4.ip packetDropForwardingDisabled:sum(packetBytes) 0
attr interpolationmode none
attr recordingmode sum(packetBytes)
attr source packetDropReasonIsForwardingDisabled(packetDropped)
attr title "packet drop: forwarding disabled, sum(packetBytes)"
scalar DroneNetwork.drones[1].ipv4.ip packetDropNoInterfaceFound:count 0
attr interpolationmode none
attr recordingmode count
attr source packetDropReasonIsNoInterfaceFound(packetDropped)
attr title "packet drop: no interface found, count"
scalar DroneNetwork.drones[1].ipv4.ip packetDropNoInterfaceFound:sum(packetBytes) 0
attr interpolationmode none
attr recordingmode sum(packetBytes)
attr source packetDropReasonIsNoInterfaceFound(packetDropped)
attr title "packet drop: no interface found, sum(packetBytes)"
scalar DroneNetwork.drones[1].ipv4.ip packetDropNoRouteFound:count 0
attr interpolationmode none
attr recordingmode count
attr source packetDropReasonIsNoRouteFound(packetDropped)
attr title "packet drop: no route found, count"
scalar DroneNetwork.drones[1].ipv4.ip packetDropNoRouteFound:sum(packetBytes) 0
attr interpolationmode none
attr recordingmode sum(packetBytes)
attr source packetDropReasonIsNoRouteFound(packetDropped)
attr title "packet drop: no route found, sum(packetBytes)"
scalar DroneNetwork.drones[1].ipv4.ip packetDropUndefined:count 0
attr interpolationmode none
attr recordingmode count
attr source packetDropReasonIsUndefined(packetDropped)
attr title "packet drop: undefined, count"
scalar DroneNetwork.drones[1].ipv4.ip packetDropUndefined:sum(packetBytes) 0
attr interpolationmode none
attr recordingmode sum(packetBytes)
attr source packetDropReasonIsUndefined(packetDropped)
attr title "packet drop: undefined, sum(packetBytes)"
par DroneNetwork.drones[1].ipv4.arp typename "\"inet.networklayer.arp.ipv4.GlobalArp\""
par DroneNetwork.drones[1].ipv4.arp interfaceTableModule "\"DroneNetwork.drones[1].interfaceTable\""
par DroneNetwork.drones[1].ipv4.arp addressType "\"ipv4\""
attr enum ipv4,ipv6,mac,moduleid,modulepath
par DroneNetwork.drones[1].ipv4.lp typename "\"inet.common.MessageDispatcher\""
par DroneNetwork.drones[1].ipv4.lp displayStringTextFormat "\"processed %p pk (%l)\""
par DroneNetwork.drones[1].ipv4.lp forwardServiceRegistration true
par DroneNetwork.drones[1].ipv4.lp forwardProtocolRegistration true
par DroneNetwork.drones[1].ipv4 typename "\"inet.networklayer.ipv4.Ipv4NetworkLayer\""
par DroneNetwork.drones[1].ipv4 forwarding true
par DroneNetwork.drones[1].ipv4 multicastForwarding false
par DroneNetwork.drones[1].ipv4 interfaceTableModule "\"DroneNetwork.drones[1].interfaceTable\""
par DroneNetwork.drones[1].ipv4 displayStringTextFormat "\"%i\""
par DroneNetwork.drones[1].nl typename "\"inet.common.MessageDispatcher\""
par DroneNetwork.drones[1].nl displayStringTextFormat "\"processed %p pk (%l)\""
par DroneNetwork.drones[1].nl forwardServiceRegistration true
par DroneNetwork.drones[1].nl forwardProtocolRegistration true
[...]
bin	0.06	0
bin	0.08	0
bin	0.1	0
bin	0.12	0
bin	0.14	0
bin	0.16	0
bin	0.18	0
bin	0.2	0
bin	0.22	0
bin	0.24	0
bin	0.26	0
bin	0.28	0
bin	0.3	0
bin	0.32	0
bin	0.34	0
bin	0.36	0
bin	0.38	0
bin	0.4	0
bin	0.42	0
bin	0.44	0
bin	0.46	0
bin	0.48	0
bin	0.5	0
statistic DroneNetwork.drones[2].wlan[0].radio symbolErrorRate:histogram
field count 11
field mean 0
field stddev 0
field min 0
field max 0
field sum 0
field sqrsum 0
attr recordingmode histogram
attr source symbolErrorRate(packetSentToUpper)
attr title "Symbol error rate"
bin	-inf	0
bin	-0.5	0
bin	-0.48	0
bin	-0.46	0
bin	-0.44	0
bin	-0.42	0
bin	-0.4	0
bin	-0.38	0
bin	-0.36	0
bin	-0.34	0
bin	-0.32	0
bin	-0.3	0
bin	-0.28	0
bin	-0.26	0
bin	-0.24	0
bin	-0.22	0
bin	-0.2	0
bin	-0.18	0
bin	-0.16	0
bin	-0.14	0
bin	-0.12	0
bin	-0.1	0
bin	-0.08	0
bin	-0.06	0
bin	-0.04	0
bin	-0.02	0
bin	0	11
bin	0.02	0
bin	0.04	0
bin	0.06	0
bin	0.08	0
bin	0.1	0
bin	0.12	0
bin	0.14	0
bin	0.16	0
bin	0.18	0
bin	0.2	0
bin	0.22	0
bin	0.24	0
bin	0.26	0
bin	0.28	0
bin	0.3	0
bin	0.32	0
bin	0.34	0
bin	0.36	0
bin	0.38	0
bin	0.4	0
bin	0.42	0
bin	0.44	0
bin	0.46	0
bin	0.48	0
bin	0.5	0
par DroneNetwork.drones[2].wlan[0] typename "\"inet.linklayer.acking.AckingWirelessInterface\""
par DroneNetwork.drones[2].wlan[0] displayStringTextFormat "\"%a (%i)\\n%m\""
par DroneNetwork.drones[2].wlan[0] recordPcap false
par DroneNetwork.drones[2].wlan[0] numPcapRecorders 0
par DroneNetwork.drones[2].wlan[0] interfaceTableModule "\"DroneNetwork.drones[2].interfaceTable\""
par DroneNetwork.drones[2].wlan[0] energySourceModule "\"\""
par DroneNetwork.drones[2].wlan[0] bitrate 1e+06bps
attr unit bps
scalar DroneNetwork.drones[2].wlan[0] packetDropInterfaceDown:count 0
attr interpolationmode none
attr recordingmode count
attr source packetDropReasonIsInterfaceDown(packetDropped)
attr title "packet drops: interface down, count"
scalar DroneNetwork.drones[2].wlan[0] packetDropInterfaceDown:sum(packetBytes) 0
attr interpolationmode none
attr recordingmode sum(packetBytes)
attr source packetDropReasonIsInterfaceDown(packetDropped)
attr title "packet drops: interface down, sum(packetBytes)"
scalar DroneNetwork.drones[2].wlan[0] packetDropNoCarrier:count 0
attr interpolationmode none
attr recordingmode count
attr source packetDropReasonIsNoCarrier(packetDropped)
attr title "packet drops: no carrier, count"
scalar DroneNetwork.drones[2].wlan[0] packetDropNoCarrier:sum(packetBytes) 0
attr interpolationmode none
attr recordingmode sum(packetBytes)
attr source packetDropReasonIsNoCarrier(packetDropped)
attr title "packet drops: no carrier, sum(packetBytes)"
par DroneNetwork.drones[2].ipv4.transportIn.channel typename "\"ned.IdealChannel\""
par DroneNetwork.drones[2].ipv4.up.out[0].channel typename "\"ned.IdealChannel\""
par DroneNetwork.drones[2].ipv4.lp.out[2].channel typename "\"ned.IdealChannel\""
par DroneNetwork.drones[2].ipv4.ifIn.channel typename "\"ned.IdealChannel\""
par DroneNetwork.drones[2].ipv4.configurator typename "\"inet.networklayer.configurator.ipv4.Ipv4NodeConfigurator\""
par DroneNetwork.drones[2].ipv4.configurator interfaceTableModule "\"DroneNetwork.drones[2].interfaceTable\""
par DroneNetwork.drones[2].ipv4.configurator routingTableModule "\"DroneNetwork.drones[2].ipv4.routingTable\""
par DroneNetwork.drones[2].ipv4.configurator networkConfiguratorModule "\"configurator\""
par DroneNetwork.drones[2].ipv4.configurator configureRoutingTable true
par DroneNetwork.drones[2].ipv4.routingTable typename "\"inet.networklayer.ipv4.Ipv4RoutingTable\""
par DroneNetwork.drones[2].ipv4.routingTable interfaceTableModule "\"DroneNetwork.drones[2].interfaceTable\""
par DroneNetwork.drones[2].ipv4.routingTable routerId "\"auto\""
par DroneNetwork.drones[2].ipv4.routingTable netmaskRoutes "\"*\""
par DroneNetwork.drones[2].ipv4.routingTable forwarding true
par DroneNetwork.drones[2].ipv4.routingTable multicastForwarding false
par DroneNetwork.drones[2].ipv4.routingTable useAdminDist false
par DroneNetwork.drones[2].ipv4.routingTable routingFile "\"\""
par DroneNetwork.drones[2].ipv4.natTable typename "\"inet.networklayer.ipv4.Ipv4NatTable\""
par DroneNetwork.drones[2].ipv4.natTable networkProtocolModule "\"^.ip\""
par DroneNetwork.drones[2].ipv4.natTable config "<config/> at content:1"
par DroneNetwork.drones[2].ipv4.up typename "\"inet.common.MessageDispatcher\""
par DroneNetwork.drones[2].ipv4.up displayStringTextFormat "\"processed %p pk (%l)\""
par DroneNetwork.drones[2].ipv4.up forwardServiceRegistration true
par DroneNetwork.drones[2].ipv4.up forwardProtocolRegistration true
par DroneNetwork.drones[2].ipv4.igmp typename "\"inet.networklayer.ipv4.Igmpv2\""
par DroneNetwork.drones[2].ipv4.igmp interfaceTableModule "\"DroneNetwork.drones[2].interfaceTable\""
par DroneNetwork.drones[2].ipv4.igmp routingTableModule "\"DroneNetwork.drones[2].ipv4.routingTable\""
par DroneNetwork.drones[2].ipv4.igmp crcMode "\"declared\""
attr enum declared,computed
par DroneNetwork.drones[2].ipv4.igmp enabled true
par DroneNetwork.drones[2].ipv4.igmp robustnessVariable 2
par DroneNetwork.drones[2].ipv4.igmp queryInterval 125s
attr unit s
par DroneNetwork.drones[2].ipv4.igmp queryResponseInterval 10s
attr unit s
par DroneNetwork.drones[2].ipv4.igmp groupMembershipInterval 260s
attr unit s
par DroneNetwork.drones[2].ipv4.igmp otherQuerierPresentInterval 255s
attr unit s
par DroneNetwork.drones[2].ipv4.igmp startupQueryInterval 31.25s
attr unit s
par DroneNetwork.drones[2].ipv4.igmp startupQueryCount 2
par DroneNetwork.drones[2].ipv4.igmp lastMemberQueryInterval 1s
attr unit s
par DroneNetwork.drones[2].ipv4.igmp lastMemberQueryCount 2
par DroneNetwork.drones[2].ipv4.igmp unsolicitedReportInterval 10s
attr unit s
par DroneNetwork.drones[2].ipv4.icmp typename "\"inet.networklayer.ipv4.Icmp\""
par DroneNetwork.drones[2].ipv4.icmp interfaceTableModule "\"DroneNetwork.drones[2].interfaceTable\""
par DroneNetwork.drones[2].ipv4.icmp routingTableModule "\"DroneNetwork.drones[2].ipv4.routingTable\""
par DroneNetwork.drones[2].ipv4.icmp crcMode "\"declared\""
attr enum declared,computed
attr mutable ""
par DroneNetwork.drones[2].ipv4.icmp quoteLength 8B
attr mutable ""
attr unit B
par DroneNetwork.drones[2].ipv4.mp typename "\"inet.common.MessageDispatcher\""
par DroneNetwork.drones[2].ipv4.mp displayStringTextFormat "\"processed %p pk (%l)\""
par DroneNetwork.drones[2].ipv4.mp forwardServiceRegistration true
par DroneNetwork.drones[2].ipv4.mp forwardProtocolRegistration true
par DroneNetwork.drones[2].ipv4.ip typename "\"inet.networklayer.ipv4.Ipv4\""
par DroneNetwork.drones[2].ipv4.ip interfaceTableModule "\"DroneNetwork.drones[2].interfaceTable\""
par DroneNetwork.drones[2].ipv4.ip routingTableModule "\"DroneNetwork.drones[2].ipv4.routingTable\""
par DroneNetwork.drones[2].ipv4.ip arpModule "\"DroneNetwork.drones[2].ipv4.arp\""
par DroneNetwork.drones[2].ipv4.ip icmpModule "\"DroneNetwork.drones[2].ipv4.icmp\""
par DroneNetwork.drones[2].ipv4.ip crcMode "\"declared\""
attr enum declared,computed
par DroneNetwork.drones[2].ipv4.ip timeToLive 32
par DroneNetwork.drones[2].ipv4.ip multicastTimeToLive 32
par DroneNetwork.drones[2].ipv4.ip fragmentTimeout 60s
attr unit s
par DroneNetwork.drones[2].ipv4.ip limitedBroadcast false
par DroneNetwork.drones[2].ipv4.ip directBroadcastInterfaces "\"\""
scalar DroneNetwork.drones[2].ipv4.ip packetDropAddressResolutionFailed:count 0
attr interpolationmode none
attr recordingmode count
attr source packetDropReasonIsAddressResolutionFailed(packetDropped)
attr title "packet drop: address resolution failed, count"
scalar DroneNetwork.drones[2].ipv4.ip packetDropAddressResolutionFailed:sum(packetBytes) 0
attr interpolationmode none
attr recordingmode sum(packetBytes)
attr source packetDropReasonIsAddressResolutionFailed(packetDropped)
attr title "packet drop: address resolution failed, sum(packetBytes)"
scalar DroneNetwork.drones[2].ipv4.ip packetDropHopLimitReached:count 0
attr interpolationmode none
attr recordingmode count
attr source packetDropReasonIsHopLimitReached(packetDropped)
attr title "packet drop: hop limit reached, count"
scalar DroneNetwork.drones[2].ipv4.ip packetDropHopLimitReached:sum(packetBytes) 0
attr interpolationmode none
attr recordingmode sum(packetBytes)
attr source packetDropReasonIsHopLimitReached(packetDropped)
attr title "packet drop: hop limit reached, sum(packetBytes)"
scalar DroneNetwork.drones[2].ipv4.ip packetDropForwardingDisabled:count 0
attr interpolationmode none
attr recordingmode count
attr source packetDropReasonIsForwardingDisabled(packetDropped)
attr title "packet drop: forwarding disabled, count"
scalar DroneNetwork.drones[2].ipv4.ip packetDropForwardingDisabled:sum(packetBytes) 0
attr interpolationmode none
attr recordingmode sum(packetBytes)
attr source packetDropReasonIsForwardingDisabled(packetDropped)
attr title "packet drop: forwarding disabled, sum(packetBytes)"
scalar DroneNetwork.drones[2].ipv4.ip packetDropNoInterfaceFound:count 0
attr interpolationmode none
attr recordingmode count
attr source packetDropReasonIsNoInterfaceFound(packetDropped)
attr title "packet drop: no interface found, count"
scalar DroneNetwork.drones[2].ipv4.ip packetDropNoInterfaceFound:sum(packetBytes) 0
attr interpolationmode none
attr recordingmode sum(packetBytes)
attr source packetDropReasonIsNoInterfaceFound(packetDropped)
attr title "packet drop: no interface found, sum(packetBytes)"
scalar DroneNetwork.drones[2].ipv4.ip packetDropNoRouteFound:count 0
attr interpolationmode none
attr recordingmode count
attr source packetDropReasonIsNoRouteFound(packetDropped)
attr title "packet drop: no route found, count"
scalar DroneNetwork.drones[2].ipv4.ip packetDropNoRouteFound:sum(packetBytes) 0
attr interpolationmode none
attr recordingmode sum(packetBytes)
attr source packetDropReasonIsNoRouteFound(packetDropped)
attr title "packet drop: no route found, sum(packetBytes)"
scalar DroneNetwork.drones[2].ipv4.ip packetDropUndefined:count 0
attr interpolationmode none
attr recordingmode count
attr source packetDropReasonIsUndefined(packetDropped)
attr title "packet drop: undefined, count"
scalar DroneNetwork.drones[2].ipv4.ip packetDropUndefined:sum(packetBytes) 0
attr interpolationmode none
attr recordingmode sum(packetBytes)
attr source packetDropReasonIsUndefined(packetDropped)
attr title "packet drop: undefined, sum(packetBytes)"
par DroneNetwork.drones[2].ipv4.arp typename "\"inet.networklayer.arp.ipv4.GlobalArp\""
par DroneNetwork.drones[2].ipv4.arp interfaceTableModule "\"DroneNetwork.drones[2].interfaceTable\""
par DroneNetwork.drones[2].ipv4.arp addressType "\"ipv4\""
attr enum ipv4,ipv6,mac,moduleid,modulepath
par DroneNetwork.drones[2].ipv4.lp typename "\"inet.common.MessageDispatcher\""
par DroneNetwork.drones[2].ipv4.lp displayStringTextFormat "\"processed %p pk (%l)\""
par DroneNetwork.drones[2].ipv4.lp forwardServiceRegistration true
par DroneNetwork.drones[2].ipv4.lp forwardProtocolRegistration true
par DroneNetwork.drones[2].ipv4 typename "\"inet.networklayer.ipv4.Ipv4NetworkLayer\""
par DroneNetwork.drones[2].ipv4 forwarding true
par DroneNetwork.drones[2].ipv4 multicastForwarding false
par DroneNetwork.drones[2].ipv4 interfaceTableModule "\"DroneNetwork.drones[2].interfaceTable\""
par DroneNetwork.drones[2].ipv4 displayStringTextFormat "\"%i\""
par DroneNetwork.drones[2].nl typename "\"inet.common.MessageDispatcher\""
par DroneNetwork.drones[2].nl displayStringTextFormat "\"processed %p pk (%l)\""
par DroneNetwork.drones[2].nl forwardServiceRegistration true
par DroneNetwork.drones[2].nl forwardProtocolRegistration true
par DroneNetwork.drones[2].udp typename "\"inet.transportlayer.udp.Udp\""
par DroneNetwork.drones[2].udp interfaceTableModule "\"DroneNetwork.drones[2].interfaceTable\""
par DroneNetwork.drones[2].udp icmpModule "\"^.ipv4.icmp\""
par DroneNetwork.drones[2].udp icmpv6Module "\"^.ipv6.icmpv6\""
par DroneNetwork.drones[2].udp crcMode "\"declared\""
attr enum disabled,declared,computed
par DroneNetwork.drones[2].udp defaultMulticastLoop true
scalar DroneNetwork.drones[2].udp packetReceived:count 4
attr interpolationmode none
attr recordingmode count
attr source packetReceived
attr title "packets received, count"
scalar DroneNetwork.drones[2].udp packetReceived:sum(packetBytes) 128
attr interpolationmode none
attr recordingmode sum(packetBytes)
attr source packetReceived
attr title "packets received, sum(packetBytes)"
scalar DroneNetwork.drones[2].udp packetSent:count 4
attr interpolationmode none
attr recordingmode count
attr source packetSent
attr title "packets sent, count"
scalar DroneNetwork.drones[2].udp packetSent:sum(packetBytes) 128
attr interpolationmode none
attr recordingmode sum(packetBytes)
attr source packetSent
attr title "packets sent, sum(packetBytes)"
scalar DroneNetwork.drones[2].udp passedUpPk:count 4
attr interpolationmode none
attr recordingmode count
attr source packetSentToUpper
attr title "packets passed up, count"
scalar DroneNetwork.drones[2].udp droppedPkWrongPort:count 0
attr interpolationmode none
attr recordingmode count
attr source packetDropReasonIsNoPortFound(packetDropped)
attr title "packets dropped (wrong port), count"
scalar DroneNetwork.drones[2].udp droppedPkBadChecksum:count 0
attr interpolationmode none
attr recordingmode count
attr source packetDropReasonIsIncorrectlyReceived(packetDropped)
attr title "packets dropped (checksum error), count"
par DroneNetwork.drones[2].tcp typename "\"inet.transportlayer.tcp.Tcp\""
par DroneNetwork.drones[2].tcp crcMode "\"declared\""
attr enum declared,computed
par DroneNetwork.drones[2].tcp advertisedWindow 7504
par DroneNetwork.drones[2].tcp delayedAcksEnabled false
par DroneNetwork.drones[2].tcp nagleEnabled true
par DroneNetwork.drones[2].tcp limitedTransmitEnabled false
par DroneNetwork.drones[2].tcp increasedIWEnabled false
par DroneNetwork.drones[2].tcp sackSupport false
par DroneNetwork.drones[2].tcp windowScalingSupport false
par DroneNetwork.drones[2].tcp windowScalingFactor -1
par DroneNetwork.drones[2].tcp timestampSupport false
par DroneNetwork.drones[2].tcp mss 536
par DroneNetwork.drones[2].tcp msl 120s
attr unit s
par DroneNetwork.drones[2].tcp tcpAlgorithmClass "\"TcpReno\""
par DroneNetwork.drones[2].tcp useDataNotification false
par DroneNetwork.drones[2].tcp dupthresh 3
par DroneNetwork.drones[2].tcp initialSsthresh 4294967295
par DroneNetwork.drones[2].tcp stopOperationExtraTime 0s
attr unit s
par DroneNetwork.drones[2].tcp stopOperationTimeout 2s
attr unit s
par DroneNetwork.drones[2].tcp ecnWillingness false
par DroneNetwork.drones[2].tcp dctcpGamma 0.0625
par DroneNetwork.drones[2].tn typename "\"inet.common.MessageDispatcher\""
par DroneNetwork.drones[2].tn displayStringTextFormat "\"processed %p pk (%l)\""
par DroneNetwork.drones[2].tn forwardServiceRegistration true
par DroneNetwork.drones[2].tn forwardProtocolRegistration true
par DroneNetwork.drones[2].at typename "\"inet.common.MessageDispatcher\""
par DroneNetwork.drones[2].at displayStringTextFormat "\"processed %p pk (%l)\""
par DroneNetwork.drones[2].at forwardServiceRegistration true
par DroneNetwork.drones[2].at forwardProtocolRegistration true
par DroneNetwork.drones[2].aodv typename "\"inet.routing.aodv.Aodv\""
par DroneNetwork.drones[2].aodv routingTableModule "\"^.ipv4.routingTable\""
par DroneNetwork.drones[2].aodv interfaceTableModule "\"DroneNetwork.drones[2].interfaceTable\""
par DroneNetwork.drones[2].aodv networkProtocolModule "\"^.ipv4.ip\""
par DroneNetwork.drones[2].aodv askGratuitousRREP false
par DroneNetwork.drones[2].aodv useHelloMessages false
par DroneNetwork.drones[2].aodv useLocalRepair false
par DroneNetwork.drones[2].aodv destinationOnlyFlag false
par DroneNetwork.drones[2].aodv udpPort 654
par DroneNetwork.drones[2].aodv interface "\"wlan0\""
par DroneNetwork.drones[2].aodv maxPeriodicJitter 0.25s
attr unit s
par DroneNetwork.drones[2].aodv periodicJitter "uniform(0s, maxPeriodicJitter)"
attr unit s
par DroneNetwork.drones[2].aodv maxJitter 0.005s
attr unit s
par DroneNetwork.drones[2].aodv jitter "uniform(0ms, maxJitter)"
attr unit s
par DroneNetwork.drones[2].aodv helloInterval 1s
attr unit s
par DroneNetwork.drones[2].aodv allowedHelloLoss 2
par DroneNetwork.drones[2].aodv activeRouteTimeout 3s
attr unit s
par DroneNetwork.drones[2].aodv netDiameter 35
par DroneNetwork.drones[2].aodv nodeTraversalTime 0.04s
attr unit s
par DroneNetwork.drones[2].aodv rerrRatelimit 10
par DroneNetwork.drones[2].aodv rreqRetries 2
par DroneNetwork.drones[2].aodv rreqRatelimit 10
par DroneNetwork.drones[2].aodv timeoutBuffer 2
par DroneNetwork.drones[2].aodv ttlStart 2
par DroneNetwork.drones[2].aodv ttlIncrement 2
par DroneNetwork.drones[2].aodv ttlThreshold 7
par DroneNetwork.drones[2].aodv localAddTTL 2
par DroneNetwork.drones[2].aodv myRouteTimeout 6s
attr unit s
par DroneNetwork.drones[2].aodv deletePeriod 15s
attr unit s
par DroneNetwork.drones[2].aodv blacklistTimeout 5.6s
attr unit s
par DroneNetwork.drones[2].aodv netTraversalTime 2.8s
attr unit s
par DroneNetwork.drones[2].aodv nextHopWait 0.05s
attr unit s
par DroneNetwork.drones[2].aodv pathDiscoveryTime 5.6s
attr unit s
par DroneNetwork.drones[2].droneControl typename "\"Physical_layer.Drone_block.DroneControl\""
par DroneNetwork.drones[2].droneControl Drone_ID 3
par DroneNetwork.drones[2].droneControl number_of_rotors 4
par DroneNetwork.drones[2].droneControl motor_efficiency 0.6
par DroneNetwork.drones[2].droneControl mass_of_drone 1.5kg
attr unit kg
par DroneNetwork.drones[2].droneControl additional_mass 0kg
attr unit kg
par DroneNetwork.drones[2].droneControl frequencyHz 24000Hz
attr unit Hz
par DroneNetwork.drones[2].droneControl antena_power 0.5J
attr unit J
par DroneNetwork.drones[2].droneControl sensor_power 0.7J
attr unit J
par DroneNetwork.drones[2].droneControl additional_power 0J
attr unit J
par DroneNetwork.drones[2].droneControl battery_capacity 8000mAh
attr unit mAh
par DroneNetwork.drones[2].droneControl battery_remain 8000mAh
attr unit mAh
par DroneNetwork.drones[2].droneControl battery_voltage 14.88V
attr unit V
par DroneNetwork.drones[2].droneControl drone_size 1m
attr unit m
par DroneNetwork.drones[2].droneControl acceleration 0a
attr unit a
par DroneNetwork.drones[2].droneControl x_velocity 0ms
attr unit ms
par DroneNetwork.drones[2].droneControl y_velocity 0ms
attr unit ms
par DroneNetwork.drones[2].droneControl z_velocity 0ms
attr unit ms
par DroneNetwork.drones[2] typename "\"Physical_layer.Drone_block.Drone\""
par DroneNetwork.drones[2] hasStatus false
par DroneNetwork.drones[2] osgModel "\"\""
par DroneNetwork.drones[2] osgModelColor "\"\""
par DroneNetwork.drones[2] canvasImage "\"\""
par DroneNetwork.drones[2] canvasImageColor "\"\""
par DroneNetwork.drones[2] recordPcap false
par DroneNetwork.drones[2] numPcapRecorders 0
par DroneNetwork.drones[2] numLoInterfaces 1
par DroneNetwork.drones[2] numWlanInterfaces 1
par DroneNetwork.drones[2] numEthInterfaces 0
par DroneNetwork.drones[2] numPppInterfaces 0
par DroneNetwork.drones[2] numTunInterfaces 0
par DroneNetwork.drones[2] numVirtInterfaces 0
par DroneNetwork.drones[2] fcsMode "\"declared\""
attr enum declared,computed
par DroneNetwork.drones[2] hasIpv4 true
par DroneNetwork.drones[2] hasIpv6 false
par DroneNetwork.drones[2] hasGn false
par DroneNetwork.drones[2] forwarding true
par DroneNetwork.drones[2] multicastForwarding false
par DroneNetwork.drones[2] hasUdp true
par DroneNetwork.drones[2] hasTcp true
par DroneNetwork.drones[2] hasSctp false
par DroneNetwork.drones[2] numApps 0
par DroneNetwork.drones[2] Drone_ID 3
par DroneNetwork.simControl typename "\"Physical_layer.simulations.SimulationControl\""
par DroneNetwork.simControl blockSize 100
par DroneNetwork.simControl numDrones 3
par DroneNetwork.simControl numOfSockets 3
par DroneNetwork.simControl numOfChargeStation 2
par DroneNetwork.simControl nextStationId 5
par DroneNetwork typename "\"Physical_layer.simulations.DroneNetwork\""
par DroneNetwork numChargeStation 2
par DroneNetwork numDrones 3

