version 3
run General-0-20250507-10:19:33-4295
attr configname General
attr datetime 20250507-10:19:33
attr datetimef 20250507-101933
attr experiment General
attr inifile omnetpp.ini
attr iterationvars ""
attr iterationvarsd ""
attr iterationvarsf ""
attr measurement ""
attr network DroneNetwork
attr processid 4295
attr repetition 0
attr replication #0
attr resultdir results
attr runnumber 0
attr seedset 0
config image-path ../inet/images
config ned-path .;Physical_layer/Map_block;Physical_layer/Calculation_block;Physical_layer/Drone_block;BasicProtocol_layer;
config debug-on-errors true
config record-eventlog true
config network DroneNetwork
config sim-time-limit 1000s
config **.simControl.heightMapFile "\"heightmap.txt\""
config **.simControl.blockSize 100
config **.numDrones 3
config **.numChargeStation 2
config **.drones[*].numApps 3
config **.drones[*].droneControl.number_of_rotors 4
config **.drones[*].droneControl.motor_efficiency 0.6
config **.drones[*].droneControl.mass_of_drone 1.5kg
config **.drones[*].droneControl.additional_mass 0kg
config **.drones[*].droneControl.frequencyHz 24000Hz
config **.drones[*].droneControl.antena_power 0.5J
config **.drones[*].droneControl.sensor_power 0.7J
config **.drones[*].droneControl.additional_power 0J
config **.drones[*].droneControl.battery_capacity 8000mAh
config **.drones[*].droneControl.battery_voltage 14.88V
config **.drones[*].droneControl.drone_size 1m
config **.drones[*].useAODV true
config *.configurator.addStaticRoutes false
config **.drones[*].droneControl.time_step 10
config **.wlan[0].radio.displayCommunicationRange true
config *.drones[*].mobility.typename PublicStationaryMobility
config *.Network.drones[*].mobility.typename PublicStationaryMobility
config *.visualizer.*.mobilityVisualizer.displayMobility true
config *.radioMedium.pathLoss "\"RayleighFading\""

par DroneNetwork.radioMedium.propagation typename "\"inet.physicallayer.wireless.common.propagation.ConstantSpeedPropagation\""
par DroneNetwork.radioMedium.propagation propagationSpeed 2.99792e+08mps
attr unit mps
par DroneNetwork.radioMedium.propagation ignoreMovementDuringTransmission true
par DroneNetwork.radioMedium.propagation ignoreMovementDuringPropagation true
par DroneNetwork.radioMedium.propagation ignoreMovementDuringReception true
scalar DroneNetwork.radioMedium.propagation "Arrival computation count" 0
par DroneNetwork.radioMedium.analogModel typename "\"inet.physicallayer.wireless.common.analogmodel.packetlevel.ScalarAnalogModel\""
par DroneNetwork.radioMedium.analogModel ignorePartialInterference false
par DroneNetwork.radioMedium.backgroundNoise typename "\"inet.physicallayer.wireless.common.backgroundnoise.IsotropicScalarBackgroundNoise\""
par DroneNetwork.radioMedium.backgroundNoise power -110dBm
attr unit dBm
par DroneNetwork.radioMedium.backgroundNoise bandwidth "nan Hz"
attr unit Hz
par DroneNetwork.radioMedium.pathLoss typename "\"inet.physicallayer.wireless.common.pathloss.FreeSpacePathLoss\""
par DroneNetwork.radioMedium.pathLoss alpha 2
par DroneNetwork.radioMedium.pathLoss systemLoss 0dB
attr unit dB
par DroneNetwork.radioMedium.mediumLimitCache typename "\"inet.physicallayer.wireless.common.medium.MediumLimitCache\""
par DroneNetwork.radioMedium.mediumLimitCache centerFrequency 2.4e+09Hz
attr unit Hz
par DroneNetwork.radioMedium.mediumLimitCache maxSpeed "nan mps"
attr unit mps
par DroneNetwork.radioMedium.mediumLimitCache maxTransmissionPower "nan W"
attr unit W
par DroneNetwork.radioMedium.mediumLimitCache minInterferencePower -110dBm
attr unit dBm
par DroneNetwork.radioMedium.mediumLimitCache minReceptionPower -85dBm
attr unit dBm
par DroneNetwork.radioMedium.mediumLimitCache maxAntennaGain 0dB
attr unit dB
par DroneNetwork.radioMedium.mediumLimitCache minInterferenceTime 1e-12s
attr unit s
par DroneNetwork.radioMedium.mediumLimitCache maxTransmissionDuration 0.01s
attr unit s
par DroneNetwork.radioMedium.mediumLimitCache maxCommunicationRange "nan m"
attr unit m
par DroneNetwork.radioMedium.mediumLimitCache maxInterferenceRange "nan m"
attr unit m
par DroneNetwork.radioMedium.communicationCache typename "\"inet.physicallayer.wireless.common.communicationcache.VectorCommunicationCache\""
par DroneNetwork.radioMedium typename "\"inet.physicallayer.wireless.ieee80211.packetlevel.Ieee80211RadioMedium\""
par DroneNetwork.radioMedium physicalEnvironmentModule "\"physicalEnvironment\""
par DroneNetwork.radioMedium signalAnalogRepresentation "\"scalar\""
attr enum unitDisk,scalar,dimensional
par DroneNetwork.radioMedium rangeFilter "\"\""
par DroneNetwork.radioMedium radioModeFilter false
par DroneNetwork.radioMedium listeningFilter false
par DroneNetwork.radioMedium macAddressFilter false
par DroneNetwork.radioMedium recordTransmissionLog false
par DroneNetwork.radioMedium recordReceptionLog false
scalar DroneNetwork.radioMedium "transmission count" 0
scalar DroneNetwork.radioMedium "signal send count" 0
scalar DroneNetwork.radioMedium "reception computation count" 0
scalar DroneNetwork.radioMedium "interference computation count" 6
scalar DroneNetwork.radioMedium "reception decision computation count" 0
scalar DroneNetwork.radioMedium "listening decision computation count" 6
scalar DroneNetwork.radioMedium "reception cache hit" -nan
attr unit %
scalar DroneNetwork.radioMedium "interference cache hit" -nan
attr unit %
scalar DroneNetwork.radioMedium "noise cache hit" -nan
attr unit %
scalar DroneNetwork.radioMedium "snir cache hit" -nan
attr unit %
scalar DroneNetwork.radioMedium "reception decision cache hit" -nan
attr unit %
scalar DroneNetwork.radioMedium "reception result cache hit" -nan
attr unit %
par DroneNetwork.configurator typename "\"inet.networklayer.configurator.ipv4.Ipv4NetworkConfigurator\""
par DroneNetwork.configurator minLinkWeight 0.001
par DroneNetwork.configurator configureIsolatedNetworksSeparatly false
par DroneNetwork.configurator config "<config>...</config> at content:1"
par DroneNetwork.configurator assignAddresses true
par DroneNetwork.configurator assignUniqueAddresses true
par DroneNetwork.configurator assignDisjunctSubnetAddresses true
par DroneNetwork.configurator addStaticRoutes false
par DroneNetwork.configurator addDefaultRoutes true
par DroneNetwork.configurator addSubnetRoutes true
par DroneNetwork.configurator addDirectRoutes true
par DroneNetwork.configurator optimizeRoutes true
par DroneNetwork.configurator dumpTopology false
par DroneNetwork.configurator dumpLinks false
par DroneNetwork.configurator dumpAddresses false
par DroneNetwork.configurator dumpRoutes false
par DroneNetwork.configurator dumpConfig "\"\""
par DroneNetwork.ChargingStation[0] typename "\"Physical_layer.Drone_block.ChargingStation\""
par DroneNetwork.ChargingStation[0] ChargingStation_ID 4
par DroneNetwork.ChargingStation[0] frequencyHz 24000Hz
attr unit Hz
par DroneNetwork.ChargingStation[0] numOfSockets 3
par DroneNetwork.ChargingStation[1] typename "\"Physical_layer.Drone_block.ChargingStation\""
par DroneNetwork.ChargingStation[1] ChargingStation_ID 5
par DroneNetwork.ChargingStation[1] frequencyHz 24000Hz
attr unit Hz
par DroneNetwork.ChargingStation[1] numOfSockets 3
par DroneNetwork.drones[0].radioIn[0].channel typename "\"ned.IdealChannel\""
par DroneNetwork.drones[0].mobility typename "\"Physical_layer.Drone_block.PublicStationaryMobility\""
par DroneNetwork.drones[0].mobility subjectModule "\"^\""
par DroneNetwork.drones[0].mobility coordinateSystemModule "\"\""
par DroneNetwork.drones[0].mobility displayStringTextFormat "\"p: %p\\nv: %v\""
attr mutable ""
par DroneNetwork.drones[0].mobility updateDisplayString true
par DroneNetwork.drones[0].mobility constraintAreaMinX "-inf m"
attr unit m
par DroneNetwork.drones[0].mobility constraintAreaMinY "-inf m"
attr unit m
par DroneNetwork.drones[0].mobility constraintAreaMinZ "-inf m"
attr unit m
par DroneNetwork.drones[0].mobility constraintAreaMaxX "inf m"
attr unit m
par DroneNetwork.drones[0].mobility constraintAreaMaxY "inf m"
attr unit m
par DroneNetwork.drones[0].mobility constraintAreaMaxZ "inf m"
attr unit m
par DroneNetwork.drones[0].mobility initialX 300m
attr unit m
par DroneNetwork.drones[0].mobility initialY 200m
attr unit m
par DroneNetwork.drones[0].mobility initialZ 0m
attr unit m
par DroneNetwork.drones[0].mobility initialLatitude "nan deg"
attr unit deg
par DroneNetwork.drones[0].mobility initialLongitude "nan deg"
attr unit deg
par DroneNetwork.drones[0].mobility initialAltitude 0m
attr unit m
par DroneNetwork.drones[0].mobility initialHeading 0deg
attr unit deg
par DroneNetwork.drones[0].mobility initialElevation 0deg
attr unit deg
par DroneNetwork.drones[0].mobility initialBank 0deg
attr unit deg
par DroneNetwork.drones[0].mobility initFromDisplayString false
par DroneNetwork.drones[0].mobility updateFromDisplayString true
par DroneNetwork.drones[0].interfaceTable typename "\"inet.networklayer.common.InterfaceTable\""
par DroneNetwork.drones[0].interfaceTable displayAddresses false
par DroneNetwork.drones[0].cb typename "\"inet.common.MessageDispatcher\""
par DroneNetwork.drones[0].cb displayStringTextFormat "\"processed %p pk (%l)\""
par DroneNetwork.drones[0].cb forwardServiceRegistration true
par DroneNetwork.drones[0].cb forwardProtocolRegistration true
par DroneNetwork.drones[0].bl typename "\"inet.common.MessageDispatcher\""
par DroneNetwork.drones[0].bl displayStringTextFormat "\"processed %p pk (%l)\""
par DroneNetwork.drones[0].bl forwardServiceRegistration true
par DroneNetwork.drones[0].bl forwardProtocolRegistration true
par DroneNetwork.drones[0].li typename "\"inet.common.MessageDispatcher\""
par DroneNetwork.drones[0].li displayStringTextFormat "\"processed %p pk (%l)\""
par DroneNetwork.drones[0].li forwardServiceRegistration true
par DroneNetwork.drones[0].li forwardProtocolRegistration true
par DroneNetwork.drones[0].lo[0].upperLayerIn.channel typename "\"ned.IdealChannel\""
par DroneNetwork.drones[0].lo[0].lo.upperLayerOut.channel typename "\"ned.IdealChannel\""
par DroneNetwork.drones[0].lo[0].lo typename "\"inet.linklayer.loopback.Loopback\""
par DroneNetwork.drones[0].lo[0].lo interfaceTableModule "\"DroneNetwork.drones[0].interfaceTable\""
par DroneNetwork.drones[0].lo[0].lo mtu 4470B
attr unit B
scalar DroneNetwork.drones[0].lo[0].lo rcvdPkFromHl:count 0
attr interpolationmode none
attr recordingmode count
attr source packetReceivedFromUpper
attr title "packets received from higher layer, count"
scalar DroneNetwork.drones[0].lo[0].lo rcvdPkFromHl:sum(packetBytes) 0
attr interpolationmode none
attr recordingmode sum(packetBytes)
attr source packetReceivedFromUpper
attr title "packets received from higher layer, sum(packetBytes)"
scalar DroneNetwork.drones[0].lo[0].lo passedUpPk:count 0
attr interpolationmode none
attr recordingmode count
attr source packetSentToUpper
attr title "packets passed to higher layer, count"
scalar DroneNetwork.drones[0].lo[0].lo passedUpPk:sum(packetBytes) 0
attr interpolationmode none
attr recordingmode sum(packetBytes)
attr source packetSentToUpper
attr title "packets passed to higher layer, sum(packetBytes)"
par DroneNetwork.drones[0].lo[0] typename "\"inet.linklayer.loopback.LoopbackInterface\""
par DroneNetwork.drones[0].lo[0] displayStringTextFormat "\"%a (%i)\\n%m\""
par DroneNetwork.drones[0].lo[0] recordPcap false
par DroneNetwork.drones[0].lo[0] numPcapRecorders 0
par DroneNetwork.drones[0].lo[0] interfaceTableModule "\"DroneNetwork.drones[0].interfaceTable\""
scalar DroneNetwork.drones[0].lo[0] packetDropInterfaceDown:count 0
attr interpolationmode none
attr recordingmode count
attr source packetDropReasonIsInterfaceDown(packetDropped)
attr title "packet drops: interface down, count"
scalar DroneNetwork.drones[0].lo[0] packetDropInterfaceDown:sum(packetBytes) 0
attr interpolationmode none
attr recordingmode sum(packetBytes)
attr source packetDropReasonIsInterfaceDown(packetDropped)
attr title "packet drops: interface down, sum(packetBytes)"
scalar DroneNetwork.drones[0].lo[0] packetDropNoCarrier:count 0
attr interpolationmode none
attr recordingmode count
attr source packetDropReasonIsNoCarrier(packetDropped)
attr title "packet drops: no carrier, count"
scalar DroneNetwork.drones[0].lo[0] packetDropNoCarrier:sum(packetBytes) 0
attr interpolationmode none
attr recordingmode sum(packetBytes)
attr source packetDropReasonIsNoCarrier(packetDropped)
attr title "packet drops: no carrier, sum(packetBytes)"
par DroneNetwork.drones[0].wlan[0].radioIn.channel typename "\"ned.IdealChannel\""
par DroneNetwork.drones[0].wlan[0].llc.upperLayerOut.channel typename "\"ned.IdealChannel\""
par DroneNetwork.drones[0].wlan[0].upperLayerIn.channel typename "\"ned.IdealChannel\""
par DroneNetwork.drones[0].wlan[0].mib typename "\"inet.linklayer.ieee80211.mib.Ieee80211Mib\""
par DroneNetwork.drones[0].wlan[0].llc typename "\"inet.linklayer.ieee80211.llc.Ieee80211LlcLpd\""
par DroneNetwork.drones[0].wlan[0].llc registerProtocol false
par DroneNetwork.drones[0].wlan[0].mgmt typename "\"inet.linklayer.ieee80211.mgmt.Ieee80211MgmtAdhoc\""
par DroneNetwork.drones[0].wlan[0].mgmt mibModule "\"DroneNetwork.drones[0].wlan[0].mib\""
par DroneNetwork.drones[0].wlan[0].mgmt macModule "\"DroneNetwork.drones[0].wlan[0].mac\""
par DroneNetwork.drones[0].wlan[0].mgmt interfaceTableModule "\"DroneNetwork.drones[0].interfaceTable\""
par DroneNetwork.drones[0].wlan[0].mac.dcf.channelAccess.pendingQueue typename "\"inet.linklayer.ieee80211.mac.queue.PendingQueue\""
par DroneNetwork.drones[0].wlan[0].mac.dcf.channelAccess.pendingQueue displayStringTextFormat "\"contains %p pk (%l) pushed %u\\npulled %o removed %r dropped %d\""
par DroneNetwork.drones[0].wlan[0].mac.dcf.channelAccess.pendingQueue packetCapacity 100
par DroneNetwork.drones[0].wlan[0].mac.dcf.channelAccess.pendingQueue dataCapacity -1b
attr unit b
par DroneNetwork.drones[0].wlan[0].mac.dcf.channelAccess.pendingQueue dropperClass "\"inet::queueing::PacketAtCollectionEndDropper\""
par DroneNetwork.drones[0].wlan[0].mac.dcf.channelAccess.pendingQueue comparatorClass "\"inet::ieee80211::MgmtOverDataComparator\""
par DroneNetwork.drones[0].wlan[0].mac.dcf.channelAccess.pendingQueue bufferModule "\"\""
scalar DroneNetwork.drones[0].wlan[0].mac.dcf.channelAccess.pendingQueue queueLength:last 0
attr autoWarmupFilter false
attr interpolationmode sample-hold
attr recordingmode last
attr source "warmup(atomic(constant0(packetPushEnded) + count(packetPushStarted) - count(packetPulled) - count(packetRemoved) - count(packetDropped)))"
attr title "queue length, last"
attr unit pk
scalar DroneNetwork.drones[0].wlan[0].mac.dcf.channelAccess.pendingQueue queueLength:max 0
attr autoWarmupFilter false
attr interpolationmode sample-hold
attr recordingmode max
attr source "warmup(atomic(constant0(packetPushEnded) + count(packetPushStarted) - count(packetPulled) - count(packetRemoved) - count(packetDropped)))"
attr title "queue length, max"
attr unit pk
scalar DroneNetwork.drones[0].wlan[0].mac.dcf.channelAccess.pendingQueue queueLength:timeavg 0
attr autoWarmupFilter false
attr interpolationmode sample-hold
attr recordingmode timeavg
attr source "warmup(atomic(constant0(packetPushEnded) + count(packetPushStarted) - count(packetPulled) - count(packetRemoved) - count(packetDropped)))"
attr title "queue length, timeavg"
attr unit pk
scalar DroneNetwork.drones[0].wlan[0].mac.dcf.channelAccess.pendingQueue queueBitLength:last 0
attr autoWarmupFilter false
attr interpolationmode sample-hold
attr recordingmode last
attr source "warmup(atomic(constant0(packetPushEnded) + sum(packetLength(packetPushStarted)) - sum(packetLength(packetPulled)) - sum(packetLength(packetRemoved)) - sum(packetLength(packetDropped))))"
attr title "queue bit length, last"
attr unit b
scalar DroneNetwork.drones[0].wlan[0].mac.dcf.channelAccess.pendingQueue queueBitLength:max 0
attr autoWarmupFilter false
attr interpolationmode sample-hold
attr recordingmode max
attr source "warmup(atomic(constant0(packetPushEnded) + sum(packetLength(packetPushStarted)) - sum(packetLength(packetPulled)) - sum(packetLength(packetRemoved)) - sum(packetLength(packetDropped))))"
attr title "queue bit length, max"
attr unit b
scalar DroneNetwork.drones[0].wlan[0].mac.dcf.channelAccess.pendingQueue queueBitLength:timeavg 0
attr autoWarmupFilter false
attr interpolationmode sample-hold
attr recordingmode timeavg
attr source "warmup(atomic(constant0(packetPushEnded) + sum(packetLength(packetPushStarted)) - sum(packetLength(packetPulled)) - sum(packetLength(packetRemoved)) - sum(packetLength(packetDropped))))"
attr title "queue bit length, timeavg"
attr unit b
statistic DroneNetwork.drones[0].wlan[0].mac.dcf.channelAccess.pendingQueue queueingTime:histogram
field count 0
field mean -nan
field stddev -nan
field min -nan
field max -nan
field sum 0
field sqrsum 0
attr interpolationmode none
attr recordingmode histogram
attr source queueingTime(packetPulled)
attr title "queueing times"
attr unit s
bin	-inf	0
bin	0	0
bin	1	0
scalar DroneNetwork.drones[0].wlan[0].mac.dcf.channelAccess.pendingQueue outgoingPackets:count 0
attr recordingmode count
attr source packetPulled
attr title "outgoing packets, count"
attr unit pk
scalar DroneNetwork.drones[0].wlan[0].mac.dcf.channelAccess.pendingQueue outgoingPacketLengths:sum 0
attr interpolationmode none
attr recordingmode sum
attr source packetLength(packetPulled)
attr title "outgoing packet lengths, sum"
attr unit b
statistic DroneNetwork.drones[0].wlan[0].mac.dcf.channelAccess.pendingQueue outgoingPacketLengths:histogram
field count 0
field mean -nan
field stddev -nan
field min -nan
field max -nan
field sum 0
field sqrsum 0
attr interpolationmode none
attr recordingmode histogram
attr source packetLength(packetPulled)
attr title "outgoing packet lengths"
attr unit b
bin	-inf	0
bin	0	0
bin	1	0
statistic DroneNetwork.drones[0].wlan[0].mac.dcf.channelAccess.pendingQueue flowQueueingTime:histogram
field count 0
field mean -nan
field stddev -nan
field min -nan
field max -nan
field sum 0
field sqrsum 0
attr interpolationmode none
attr recordingmode histogram
attr source queueingTime(demuxFlow(packetPulled))
attr title "flow queueing times"
attr unit s
bin	-inf	0
bin	0	0
bin	1	0
scalar DroneNetwork.drones[0].wlan[0].mac.dcf.channelAccess.pendingQueue incomingPackets:count 0
attr recordingmode count
attr source packetPushStarted
attr title "incoming packets, count"
attr unit pk
scalar DroneNetwork.drones[0].wlan[0].mac.dcf.channelAccess.pendingQueue incomingPacketLengths:sum 0
attr interpolationmode none
attr recordingmode sum
attr source packetLength(packetPushStarted)
attr title "incoming packet lengths, sum"
attr unit b
statistic DroneNetwork.drones[0].wlan[0].mac.dcf.channelAccess.pendingQueue incomingPacketLengths:histogram
field count 0
field mean -nan
field stddev -nan
field min -nan
field max -nan
field sum 0
field sqrsum 0
attr interpolationmode none
attr recordingmode histogram
attr source packetLength(packetPushStarted)
attr title "incoming packet lengths"
attr unit b
bin	-inf	0
bin	0	0
bin	1	0
scalar DroneNetwork.drones[0].wlan[0].mac.dcf.channelAccess.pendingQueue droppedPacketsQueueOverflow:count 0
attr interpolationmode none
attr recordingmode count
attr source packetDropReasonIsQueueOverflow(packetDropped)
attr title "dropped packets: queue overflow, count"
attr unit pk
scalar DroneNetwork.drones[0].wlan[0].mac.dcf.channelAccess.pendingQueue droppedPacketLengthsQueueOverflow:sum 0
attr interpolationmode none
attr recordingmode sum
attr source packetLength(packetDropReasonIsQueueOverflow(packetDropped))
attr title "dropped packet lengths: queue overflow, sum"
attr unit b
par DroneNetwork.drones[0].wlan[0].mac.dcf.channelAccess.inProgressFrames typename "\"inet.linklayer.ieee80211.mac.queue.InProgressFrames\""
par DroneNetwork.drones[0].wlan[0].mac.dcf.channelAccess.inProgressFrames pendingQueueModule "\"^.pendingQueue\""
par DroneNetwork.drones[0].wlan[0].mac.dcf.channelAccess.inProgressFrames originatorMacDataServiceModule "\"^.^.originatorMacDataService\""
par DroneNetwork.drones[0].wlan[0].mac.dcf.channelAccess.inProgressFrames ackHandlerModule "\"^.^.ackHandler\""
statistic DroneNetwork.drones[0].wlan[0].mac.dcf.channelAccess.inProgressFrames queueingTime:histogram
field count 0
field mean -nan
field stddev -nan
field min -nan
field max -nan
field sum 0
field sqrsum 0
attr interpolationmode none
attr recordingmode histogram
attr source queueingTime(packetDequeued)
attr title "queueing times"
bin	-inf	0
bin	0	0
bin	1	0
scalar DroneNetwork.drones[0].wlan[0].mac.dcf.channelAccess.inProgressFrames queueLength:max 0
attr autoWarmupFilter false
attr interpolationmode sample-hold
attr recordingmode max
attr source "warmup(count(packetEnqueued) - count(packetDequeued))"
attr title "queue length, max"
scalar DroneNetwork.drones[0].wlan[0].mac.dcf.channelAccess.inProgressFrames queueLength:timeavg 0
attr autoWarmupFilter false
attr interpolationmode sample-hold
attr recordingmode timeavg
attr source "warmup(count(packetEnqueued) - count(packetDequeued))"
attr title "queue length, timeavg"
par DroneNetwork.drones[0].wlan[0].mac.dcf.channelAccess.contention typename "\"inet.linklayer.ieee80211.mac.contention.Contention\""
par DroneNetwork.drones[0].wlan[0].mac.dcf.channelAccess.contention initialChannelBusy true
par DroneNetwork.drones[0].wlan[0].mac.dcf.channelAccess.contention backoffOptimization true
scalar DroneNetwork.drones[0].wlan[0].mac.dcf.channelAccess.contention channelAccessGranted:count 0
attr recordingmode count
attr title "channel access granted, count"
scalar DroneNetwork.drones[0].wlan[0].mac.dcf.channelAccess.contention stateChanged:count 2
attr enum IDLE,DEFER,IFS_AND_BACKOFF
attr interpolationmode none
attr recordingmode count
attr title "contention state changed, count"
attr type enum
par DroneNetwork.drones[0].wlan[0].mac.dcf.channelAccess typename "\"inet.linklayer.ieee80211.mac.channelaccess.Dcaf\""
par DroneNetwork.drones[0].wlan[0].mac.dcf.channelAccess difsn -1
par DroneNetwork.drones[0].wlan[0].mac.dcf.channelAccess cwMin -1
par DroneNetwork.drones[0].wlan[0].mac.dcf.channelAccess cwMax -1
par DroneNetwork.drones[0].wlan[0].mac.dcf.channelAccess rxModule "\"^.^.rx\""
scalar DroneNetwork.drones[0].wlan[0].mac.dcf.channelAccess channelOwnershipChanged:count 0
attr interpolationmode sample-hold
attr recordingmode count
attr title "channel ownership, count"
par DroneNetwork.drones[0].wlan[0].mac.dcf.originatorMacDataService.fragmentationPolicy typename "\"inet.linklayer.ieee80211.mac.fragmentation.BasicFragmentationPolicy\""
par DroneNetwork.drones[0].wlan[0].mac.dcf.originatorMacDataService.fragmentationPolicy fragmentationThreshold 1500B
attr unit B
par DroneNetwork.drones[0].wlan[0].mac.dcf.originatorMacDataService typename "\"inet.linklayer.ieee80211.mac.originator.OriginatorMacDataService\""
scalar DroneNetwork.drones[0].wlan[0].mac.dcf.originatorMacDataService packetAggregated:count 0
attr recordingmode count
attr title "packets aggregated, count"
scalar DroneNetwork.drones[0].wlan[0].mac.dcf.originatorMacDataService packetFragmented:count 0
attr recordingmode count
attr title "packets fragmented, count"
par DroneNetwork.drones[0].wlan[0].mac.dcf.recipientMacDataService typename "\"inet.linklayer.ieee80211.mac.recipient.RecipientMacDataService\""
scalar DroneNetwork.drones[0].wlan[0].mac.dcf.recipientMacDataService packetDeaggregated:count 0
attr recordingmode count
attr title "packets deaggregated, count"
scalar DroneNetwork.drones[0].wlan[0].mac.dcf.recipientMacDataService packetDefragmented:count 0
attr recordingmode count
attr title "packets defragmented, count"
scalar DroneNetwork.drones[0].wlan[0].mac.dcf.recipientMacDataService packetDropDuplicateDetected:count 0
attr interpolationmode none
attr recordingmode count
attr source packetDropReasonIsDuplicateDetected(packetDropped)
attr title "packet drops: duplicate detected, count"
scalar DroneNetwork.drones[0].wlan[0].mac.dcf.recipientMacDataService packetDropDuplicateDetected:sum(packetBytes) 0
attr interpolationmode none
attr recordingmode sum(packetBytes)
attr source packetDropReasonIsDuplicateDetected(packetDropped)
attr title "packet drops: duplicate detected, sum(packetBytes)"
par DroneNetwork.drones[0].wlan[0].mac.dcf.rateSelection typename "\"inet.linklayer.ieee80211.mac.rateselection.RateSelection\""
par DroneNetwork.drones[0].wlan[0].mac.dcf.rateSelection rateControlModule "\"^.rateControl\""
par DroneNetwork.drones[0].wlan[0].mac.dcf.rateSelection multicastFrameBitrate -1bps
attr unit bps
par DroneNetwork.drones[0].wlan[0].mac.dcf.rateSelection responseAckFrameBitrate -1bps
attr unit bps
par DroneNetwork.drones[0].wlan[0].mac.dcf.rateSelection responseCtsFrameBitrate -1bps
attr unit bps
par DroneNetwork.drones[0].wlan[0].mac.dcf.rateSelection dataFrameBitrate -1bps
attr unit bps
par DroneNetwork.drones[0].wlan[0].mac.dcf.rateSelection dataFrameBandwidth "nan Hz"
attr unit Hz
par DroneNetwork.drones[0].wlan[0].mac.dcf.rateSelection dataFrameNumSpatialStreams -1
par DroneNetwork.drones[0].wlan[0].mac.dcf.rateSelection mgmtFrameBitrate -1bps
attr unit bps
par DroneNetwork.drones[0].wlan[0].mac.dcf.rateSelection controlFrameBitrate -1bps
attr unit bps
par DroneNetwork.drones[0].wlan[0].mac.dcf.recoveryProcedure typename "\"inet.linklayer.ieee80211.mac.originator.NonQosRecoveryProcedure\""
par DroneNetwork.drones[0].wlan[0].mac.dcf.recoveryProcedure cwCalculatorModule "\"^.channelAccess\""
par DroneNetwork.drones[0].wlan[0].mac.dcf.recoveryProcedure rtsPolicyModule "\"^.rtsPolicy\""
par DroneNetwork.drones[0].wlan[0].mac.dcf.recoveryProcedure shortRetryLimit 7
par DroneNetwork.drones[0].wlan[0].mac.dcf.recoveryProcedure longRetryLimit 4
scalar DroneNetwork.drones[0].wlan[0].mac.dcf.recoveryProcedure retryLimitReached:count 0
attr recordingmode count
attr title "retry limit reached, count"
par DroneNetwork.drones[0].wlan[0].mac.dcf.originatorProtectionMechanism typename "\"inet.linklayer.ieee80211.mac.protectionmechanism.OriginatorProtectionMechanism\""
par DroneNetwork.drones[0].wlan[0].mac.dcf.originatorProtectionMechanism rateSelectionModule "\"^.rateSelection\""
par DroneNetwork.drones[0].wlan[0].mac.dcf.ackHandler typename "\"inet.linklayer.ieee80211.mac.originator.AckHandler\""
par DroneNetwork.drones[0].wlan[0].mac.dcf.originatorAckPolicy typename "\"inet.linklayer.ieee80211.mac.originator.OriginatorAckPolicy\""
par DroneNetwork.drones[0].wlan[0].mac.dcf.originatorAckPolicy rateSelectionModule "\"^.rateSelection\""
par DroneNetwork.drones[0].wlan[0].mac.dcf.originatorAckPolicy ackTimeout -1s
attr unit s
par DroneNetwork.drones[0].wlan[0].mac.dcf.recipientAckPolicy typename "\"inet.linklayer.ieee80211.mac.recipient.RecipientAckPolicy\""
par DroneNetwork.drones[0].wlan[0].mac.dcf.recipientAckPolicy rateSelectionModule "\"^.rateSelection\""
par DroneNetwork.drones[0].wlan[0].mac.dcf.rtsPolicy typename "\"inet.linklayer.ieee80211.mac.originator.RtsPolicy\""
par DroneNetwork.drones[0].wlan[0].mac.dcf.rtsPolicy rateSelectionModule "\"^.rateSelection\""
par DroneNetwork.drones[0].wlan[0].mac.dcf.rtsPolicy ctsTimeout -1s
attr unit s
par DroneNetwork.drones[0].wlan[0].mac.dcf.rtsPolicy rtsThreshold 2346B
attr unit B
par DroneNetwork.drones[0].wlan[0].mac.dcf.ctsPolicy typename "\"inet.linklayer.ieee80211.mac.recipient.CtsPolicy\""
par DroneNetwork.drones[0].wlan[0].mac.dcf.ctsPolicy rxModule "\"^.^.rx\""
par DroneNetwork.drones[0].wlan[0].mac.dcf.ctsPolicy rateSelectionModule "\"^.rateSelection\""
par DroneNetwork.drones[0].wlan[0].mac.dcf typename "\"inet.linklayer.ieee80211.mac.coordinationfunction.Dcf\""
par DroneNetwork.drones[0].wlan[0].mac.dcf rxModule "\"^.rx\""
par DroneNetwork.drones[0].wlan[0].mac.dcf txModule "\"^.tx\""
scalar DroneNetwork.drones[0].wlan[0].mac.dcf frameSequenceFinished:count 0
attr recordingmode count
attr title "finished frame sequences, count"
statistic DroneNetwork.drones[0].wlan[0].mac.dcf frameSequenceDuration:histogram
field count 0
field mean -nan
field stddev -nan
field min -nan
field max -nan
field sum 0
field sqrsum 0
attr recordingmode histogram
attr source frameSequenceDuration(frameSequenceFinished)
attr title "frame sequence durations"
bin	-inf	0
bin	0	0
bin	1	0
statistic DroneNetwork.drones[0].wlan[0].mac.dcf frameSequenceNumPackets:histogram
field count 0
field mean -nan
field stddev -nan
field min -nan
field max -nan
field sum 0
field sqrsum 0
attr recordingmode histogram
attr source frameSequenceNumPackets(frameSequenceFinished)
attr title "frame sequences: number of packets"
bin	-inf	0
bin	0	0
bin	1	0
scalar DroneNetwork.drones[0].wlan[0].mac.dcf packetReceivedFromPeer:count 0
attr interpolationmode none
attr recordingmode count
attr title "packets received, count"
scalar DroneNetwork.drones[0].wlan[0].mac.dcf packetReceivedFromPeer:sum(packetBytes) 0
attr interpolationmode none
attr recordingmode sum(packetBytes)
attr title "packets received, sum(packetBytes)"
scalar DroneNetwork.drones[0].wlan[0].mac.dcf packetReceivedFromPeerUnicast:count 0
attr interpolationmode none
attr recordingmode count
attr source ieee80211Unicast(packetReceivedFromPeer)
attr title "packets received: unicast, count"
scalar DroneNetwork.drones[0].wlan[0].mac.dcf packetReceivedFromPeerUnicast:sum(packetBytes) 0
attr interpolationmode none
attr recordingmode sum(packetBytes)
attr source ieee80211Unicast(packetReceivedFromPeer)
attr title "packets received: unicast, sum(packetBytes)"
scalar DroneNetwork.drones[0].wlan[0].mac.dcf packetReceivedFromPeerMulticast:count 0
attr interpolationmode none
attr recordingmode count
attr source ieee80211Multicast(packetReceivedFromPeer)
attr title "packets received: multicast, count"
scalar DroneNetwork.drones[0].wlan[0].mac.dcf packetReceivedFromPeerMulticast:sum(packetBytes) 0
attr interpolationmode none
attr recordingmode sum(packetBytes)
attr source ieee80211Multicast(packetReceivedFromPeer)
attr title "packets received: multicast, sum(packetBytes)"
scalar DroneNetwork.drones[0].wlan[0].mac.dcf packetReceivedFromPeerBroadcast:count 0
attr interpolationmode none
attr recordingmode count
attr source ieee80211Broadcast(packetReceivedFromPeer)
attr title "packets received: broadcast, count"
scalar DroneNetwork.drones[0].wlan[0].mac.dcf packetReceivedFromPeerBroadcast:sum(packetBytes) 0
attr interpolationmode none
attr recordingmode sum(packetBytes)
attr source ieee80211Broadcast(packetReceivedFromPeer)
attr title "packets received: broadcast, sum(packetBytes)"
scalar DroneNetwork.drones[0].wlan[0].mac.dcf packetReceivedFromPeerWithRetry:count 0
attr interpolationmode none
attr recordingmode count
attr source ieee80211Retry(packetReceivedFromPeer)
attr title "packets received: with retry, count"
scalar DroneNetwork.drones[0].wlan[0].mac.dcf packetReceivedFromPeerWithRetry:sum(packetBytes) 0
attr interpolationmode none
attr recordingmode sum(packetBytes)
attr source ieee80211Retry(packetReceivedFromPeer)
attr title "packets received: with retry, sum(packetBytes)"
scalar DroneNetwork.drones[0].wlan[0].mac.dcf packetReceivedFromPeerWithoutRetry:count 0
attr interpolationmode none
attr recordingmode count
attr source ieee80211NotRetry(packetReceivedFromPeer)
attr title "packets received: without retry, count"
scalar DroneNetwork.drones[0].wlan[0].mac.dcf packetReceivedFromPeerWithoutRetry:sum(packetBytes) 0
attr interpolationmode none
attr recordingmode sum(packetBytes)
attr source ieee80211NotRetry(packetReceivedFromPeer)
attr title "packets received: without retry, sum(packetBytes)"
scalar DroneNetwork.drones[0].wlan[0].mac.dcf packetSentToPeer:count 0
attr interpolationmode none
attr recordingmode count
attr title "packets sent, count"
scalar DroneNetwork.drones[0].wlan[0].mac.dcf packetSentToPeer:sum(packetBytes) 0
attr interpolationmode none
attr recordingmode sum(packetBytes)
attr title "packets sent, sum(packetBytes)"
scalar DroneNetwork.drones[0].wlan[0].mac.dcf packetSentToPeerUnicast:count 0
attr interpolationmode none
attr recordingmode count
attr source ieee80211Unicast(packetSentToPeer)
attr title "packets sent: unicast, count"
scalar DroneNetwork.drones[0].wlan[0].mac.dcf packetSentToPeerUnicast:sum(packetBytes) 0
attr interpolationmode none
attr recordingmode sum(packetBytes)
attr source ieee80211Unicast(packetSentToPeer)
attr title "packets sent: unicast, sum(packetBytes)"
scalar DroneNetwork.drones[0].wlan[0].mac.dcf packetSentToPeerMulticast:count 0
attr interpolationmode none
attr recordingmode count
attr source ieee80211Multicast(packetSentToPeer)
attr title "packets sent: multicast, count"
scalar DroneNetwork.drones[0].wlan[0].mac.dcf packetSentToPeerMulticast:sum(packetBytes) 0
attr interpolationmode none
attr recordingmode sum(packetBytes)
attr source ieee80211Multicast(packetSentToPeer)
attr title "packets sent: multicast, sum(packetBytes)"
scalar DroneNetwork.drones[0].wlan[0].mac.dcf packetSentToPeerBroadcast:count 0
attr interpolationmode none
attr recordingmode count
attr source ieee80211Broadcast(packetSentToPeer)
attr title "packets sent: broadcast , count"
scalar DroneNetwork.drones[0].wlan[0].mac.dcf packetSentToPeerBroadcast:sum(packetBytes) 0
attr interpolationmode none
attr recordingmode sum(packetBytes)
attr source ieee80211Broadcast(packetSentToPeer)
attr title "packets sent: broadcast , sum(packetBytes)"
scalar DroneNetwork.drones[0].wlan[0].mac.dcf packetSentToPeerWithRetry:count 0
attr interpolationmode none
attr recordingmode count
attr source ieee80211Retry(packetSentToPeer)
attr title "packets sent: with retry, count"
scalar DroneNetwork.drones[0].wlan[0].mac.dcf packetSentToPeerWithRetry:sum(packetBytes) 0
attr interpolationmode none
attr recordingmode sum(packetBytes)
attr source ieee80211Retry(packetSentToPeer)
attr title "packets sent: with retry, sum(packetBytes)"
scalar DroneNetwork.drones[0].wlan[0].mac.dcf packetSentToPeerWithoutRetry:count 0
attr interpolationmode none
attr recordingmode count
attr source ieee80211NotRetry(packetSentToPeer)
attr title "packets sent: without retry, count"
scalar DroneNetwork.drones[0].wlan[0].mac.dcf packetSentToPeerWithoutRetry:sum(packetBytes) 0
attr interpolationmode none
attr recordingmode sum(packetBytes)
attr source ieee80211NotRetry(packetSentToPeer)
attr title "packets sent: without retry, sum(packetBytes)"
scalar DroneNetwork.drones[0].wlan[0].mac.dcf packetDrop:count 0
attr interpolationmode none
attr recordingmode count
attr source packetDropped
attr title "packet drops, count"
scalar DroneNetwork.drones[0].wlan[0].mac.dcf packetDrop:sum(packetBytes) 0
attr interpolationmode none
attr recordingmode sum(packetBytes)
attr source packetDropped
attr title "packet drops, sum(packetBytes)"
scalar DroneNetwork.drones[0].wlan[0].mac.dcf packetDropNotAddressedToUs:count 0
attr interpolationmode none
attr recordingmode count
attr source packetDropReasonIsNotAddressedToUs(packetDropped)
attr title "packet drops: not addressed to us, count"
scalar DroneNetwork.drones[0].wlan[0].mac.dcf packetDropNotAddressedToUs:sum(packetBytes) 0
attr interpolationmode none
attr recordingmode sum(packetBytes)
attr source packetDropReasonIsNotAddressedToUs(packetDropped)
attr title "packet drops: not addressed to us, sum(packetBytes)"
scalar DroneNetwork.drones[0].wlan[0].mac.dcf packetDropQueueOverflow:count 0
attr interpolationmode none
attr recordingmode count
attr source packetDropReasonIsQueueOverflow(packetDropped)
attr title "packet drops: queue overflow, count"
scalar DroneNetwork.drones[0].wlan[0].mac.dcf packetDropQueueOverflow:sum(packetBytes) 0
attr interpolationmode none
attr recordingmode sum(packetBytes)
attr source packetDropReasonIsQueueOverflow(packetDropped)
attr title "packet drops: queue overflow, sum(packetBytes)"
scalar DroneNetwork.drones[0].wlan[0].mac.dcf packetDropRetryLimitReached:count 0
attr interpolationmode none
attr recordingmode count
attr source packetDropReasonIsRetryLimitReached(packetDropped)
attr title "packet drops: retry limit reached, count"
scalar DroneNetwork.drones[0].wlan[0].mac.dcf packetDropRetryLimitReached:sum(packetBytes) 0
attr interpolationmode none
attr recordingmode sum(packetBytes)
attr source packetDropReasonIsRetryLimitReached(packetDropped)
attr title "packet drops: retry limit reached, sum(packetBytes)"
scalar DroneNetwork.drones[0].wlan[0].mac.dcf linkBroken:count 0
attr interpolationmode none
attr recordingmode count
attr title "link breaks, count"
par DroneNetwork.drones[0].wlan[0].mac.ds typename "\"inet.linklayer.ieee80211.mac.Ds\""
par DroneNetwork.drones[0].wlan[0].mac.ds mibModule "\"DroneNetwork.drones[0].wlan[0].mib\""
par DroneNetwork.drones[0].wlan[0].mac.rx typename "\"inet.linklayer.ieee80211.mac.Rx\""
par DroneNetwork.drones[0].wlan[0].mac.tx typename "\"inet.linklayer.ieee80211.mac.Tx\""
par DroneNetwork.drones[0].wlan[0].mac.tx rxModule "\"^.rx\""
par DroneNetwork.drones[0].wlan[0].mac typename "\"inet.linklayer.ieee80211.mac.Ieee80211Mac\""
par DroneNetwork.drones[0].wlan[0].mac interfaceTableModule "\"DroneNetwork.drones[0].interfaceTable\""
par DroneNetwork.drones[0].wlan[0].mac mibModule "\"DroneNetwork.drones[0].wlan[0].mib\""
par DroneNetwork.drones[0].wlan[0].mac modeSet "\"g(mixed)\""
attr enum a,b,g(erp),g(mixed),n(mixed-2.4Ghz),p,ac
par DroneNetwork.drones[0].wlan[0].mac fcsMode "\"declared\""
attr enum declared,computed
par DroneNetwork.drones[0].wlan[0].mac initialRadioMode "\"receiver\""
attr enum off,sleep,receiver,transmitter,transceiver
par DroneNetwork.drones[0].wlan[0].mac mtu 2304B
attr unit B
par DroneNetwork.drones[0].wlan[0].mac qosStation false
scalar DroneNetwork.drones[0].wlan[0].mac packetReceivedFromLower:count 0
attr interpolationmode none
attr recordingmode count
attr title "packets received from lower layer, count"
scalar DroneNetwork.drones[0].wlan[0].mac packetReceivedFromLower:sum(packetBytes) 0
attr interpolationmode none
attr recordingmode sum(packetBytes)
attr title "packets received from lower layer, sum(packetBytes)"
scalar DroneNetwork.drones[0].wlan[0].mac packetSentToLower:count 0
attr interpolationmode none
attr recordingmode count
attr title "packets sent to lower layer, count"
scalar DroneNetwork.drones[0].wlan[0].mac packetSentToLower:sum(packetBytes) 0
attr interpolationmode none
attr recordingmode sum(packetBytes)
attr title "packets sent to lower layer, sum(packetBytes)"
scalar DroneNetwork.drones[0].wlan[0].mac packetReceivedFromUpper:count 0
attr interpolationmode none
attr recordingmode count
attr title "packets received from upper layer, count"
scalar DroneNetwork.drones[0].wlan[0].mac packetReceivedFromUpper:sum(packetBytes) 0
attr interpolationmode none
attr recordingmode sum(packetBytes)
attr title "packets received from upper layer, sum(packetBytes)"
scalar DroneNetwork.drones[0].wlan[0].mac packetSentToUpper:count 0
attr interpolationmode none
attr recordingmode count
attr title "packets sent to upper layer, count"
scalar DroneNetwork.drones[0].wlan[0].mac packetSentToUpper:sum(packetBytes) 0
attr interpolationmode none
attr recordingmode sum(packetBytes)
attr title "packets sent to upper layer, sum(packetBytes)"
scalar DroneNetwork.drones[0].wlan[0].mac packetDrop:count 0
attr interpolationmode none
attr recordingmode count
attr source packetDropped
attr title "packet drops, count"
scalar DroneNetwork.drones[0].wlan[0].mac packetDrop:sum(packetBytes) 0
attr interpolationmode none
attr recordingmode sum(packetBytes)
attr source packetDropped
attr title "packet drops, sum(packetBytes)"
scalar DroneNetwork.drones[0].wlan[0].mac packetDropIncorrectlyReceived:count 0
attr interpolationmode none
attr recordingmode count
attr source packetDropReasonIsIncorrectlyReceived(packetDropped)
attr title "packet drops: incorrectly received, count"
scalar DroneNetwork.drones[0].wlan[0].mac packetDropIncorrectlyReceived:sum(packetBytes) 0
attr interpolationmode none
attr recordingmode sum(packetBytes)
attr source packetDropReasonIsIncorrectlyReceived(packetDropped)
attr title "packet drops: incorrectly received, sum(packetBytes)"
scalar DroneNetwork.drones[0].wlan[0].mac packetDropNotAddressedToUs:count 0
attr interpolationmode none
attr recordingmode count
attr source packetDropReasonIsNotAddressedToUs(packetDropped)
attr title "packet drops: not addressed to us, count"
scalar DroneNetwork.drones[0].wlan[0].mac packetDropNotAddressedToUs:sum(packetBytes) 0
attr interpolationmode none
attr recordingmode sum(packetBytes)
attr source packetDropReasonIsNotAddressedToUs(packetDropped)
attr title "packet drops: not addressed to us, sum(packetBytes)"
scalar DroneNetwork.drones[0].wlan[0].mac packetDropQueueOverflow:count 0
attr interpolationmode none
attr recordingmode count
attr source packetDropReasonIsQueueOverflow(packetDropped)
attr title "packet drops: queue overflow, count"
scalar DroneNetwork.drones[0].wlan[0].mac packetDropQueueOverflow:sum(packetBytes) 0
attr interpolationmode none
attr recordingmode sum(packetBytes)
attr source packetDropReasonIsQueueOverflow(packetDropped)
attr title "packet drops: queue overflow, sum(packetBytes)"
scalar DroneNetwork.drones[0].wlan[0].mac packetDropRetryLimitReached:count 0
attr interpolationmode none
attr recordingmode count
attr source packetDropReasonIsRetryLimitReached(packetDropped)
attr title "packet drops: retry limit reached, count"
scalar DroneNetwork.drones[0].wlan[0].mac packetDropRetryLimitReached:sum(packetBytes) 0
attr interpolationmode none
attr recordingmode sum(packetBytes)
attr source packetDropReasonIsRetryLimitReached(packetDropped)
attr title "packet drops: retry limit reached, sum(packetBytes)"
scalar DroneNetwork.drones[0].wlan[0].mac packetDropDuplicateDetected:count 0
attr interpolationmode none
attr recordingmode count
attr source packetDropReasonIsDuplicateDetected(packetDropped)
attr title "packet drops: duplicate detected, count"
scalar DroneNetwork.drones[0].wlan[0].mac packetDropDuplicateDetected:sum(packetBytes) 0
attr interpolationmode none
attr recordingmode sum(packetBytes)
attr source packetDropReasonIsDuplicateDetected(packetDropped)
attr title "packet drops: duplicate detected, sum(packetBytes)"
scalar DroneNetwork.drones[0].wlan[0].mac packetDropOther:count 0
attr interpolationmode none
attr recordingmode count
attr source packetDropReasonIsOther(packetDropped)
attr title "packet drops: other, count"
scalar DroneNetwork.drones[0].wlan[0].mac packetDropOther:sum(packetBytes) 0
attr interpolationmode none
attr recordingmode sum(packetBytes)
attr source packetDropReasonIsOther(packetDropped)
attr title "packet drops: other, sum(packetBytes)"
scalar DroneNetwork.drones[0].wlan[0].mac linkBroken:count 0
attr interpolationmode none
attr recordingmode count
attr title "link breaks, count"
par DroneNetwork.drones[0].wlan[0].radio.antenna typename "\"inet.physicallayer.wireless.common.antenna.IsotropicAntenna\""
par DroneNetwork.drones[0].wlan[0].radio.antenna mobilityModule "\"^.^.^.mobility\""
par DroneNetwork.drones[0].wlan[0].radio.antenna numAntennas 1
par DroneNetwork.drones[0].wlan[0].radio.transmitter typename "\"inet.physicallayer.wireless.ieee80211.packetlevel.Ieee80211ScalarTransmitter\""
par DroneNetwork.drones[0].wlan[0].radio.transmitter preambleDuration -1s
attr unit s
par DroneNetwork.drones[0].wlan[0].radio.transmitter headerLength 192b
attr unit b
par DroneNetwork.drones[0].wlan[0].radio.transmitter bitrate -1bps
attr unit bps
par DroneNetwork.drones[0].wlan[0].radio.transmitter power 0.02W
attr unit W
par DroneNetwork.drones[0].wlan[0].radio.transmitter centerFrequency 2.412e+09Hz
attr unit Hz
par DroneNetwork.drones[0].wlan[0].radio.transmitter bandwidth "nan Hz"
attr unit Hz
par DroneNetwork.drones[0].wlan[0].radio.transmitter codeRate 1
par DroneNetwork.drones[0].wlan[0].radio.transmitter modulation "\"BPSK\""
par DroneNetwork.drones[0].wlan[0].radio.transmitter opMode "\"g(mixed)\""
attr enum a,b,g(erp),g(mixed),n(mixed-2.4Ghz),p,ac
par DroneNetwork.drones[0].wlan[0].radio.transmitter bandName "\"2.4 GHz\""
attr enum "2.4 GHz,5 GHz,5 GHz (20 MHz),5 GHz (40 MHz),5 GHz (80 MHz),5 GHz (160 MHz),5.9 GHz"
par DroneNetwork.drones[0].wlan[0].radio.transmitter channelNumber 0
par DroneNetwork.drones[0].wlan[0].radio.receiver.errorModel typename "\"inet.physicallayer.wireless.ieee80211.packetlevel.errormodel.Ieee80211NistErrorModel\""
par DroneNetwork.drones[0].wlan[0].radio.receiver.errorModel corruptionMode "\"packet\""
attr enum packet,chunk,byte,bit
par DroneNetwork.drones[0].wlan[0].radio.receiver.errorModel snirMode "\"min\""
attr enum min,mean
par DroneNetwork.drones[0].wlan[0].radio.receiver.errorModel snirOffset 0dB
attr unit dB
par DroneNetwork.drones[0].wlan[0].radio.receiver typename "\"inet.physicallayer.wireless.ieee80211.packetlevel.Ieee80211ScalarReceiver\""
par DroneNetwork.drones[0].wlan[0].radio.receiver snirThreshold 4dB
attr unit dB
par DroneNetwork.drones[0].wlan[0].radio.receiver snirThresholdMode "\"min\""
attr enum min,mean
par DroneNetwork.drones[0].wlan[0].radio.receiver energyDetection -85dBm
attr unit dBm
par DroneNetwork.drones[0].wlan[0].radio.receiver sensitivity -85dBm
attr unit dBm
par DroneNetwork.drones[0].wlan[0].radio.receiver centerFrequency 2.412e+09Hz
attr unit Hz
par DroneNetwork.drones[0].wlan[0].radio.receiver bandwidth 2.2e+07Hz
attr unit Hz
par DroneNetwork.drones[0].wlan[0].radio.receiver modulation "\"BPSK\""
par DroneNetwork.drones[0].wlan[0].radio.receiver opMode "\"g(mixed)\""
attr enum a,b,g(erp),g(mixed),n(mixed-2.4Ghz),p,ac
par DroneNetwork.drones[0].wlan[0].radio.receiver bandName "\"2.4 GHz\""
attr enum "2.4 GHz,5 GHz,5 GHz (20 MHz),5 GHz (40 MHz),5 GHz (80 MHz),5 GHz (160 MHz),5.9 GHz"
par DroneNetwork.drones[0].wlan[0].radio.receiver channelNumber 0
par DroneNetwork.drones[0].wlan[0].radio typename "\"inet.physicallayer.wireless.ieee80211.packetlevel.Ieee80211ScalarRadio\""
par DroneNetwork.drones[0].wlan[0].radio radioMediumModule "\"radioMedium\""
par DroneNetwork.drones[0].wlan[0].radio energySourceModule "\"\""
par DroneNetwork.drones[0].wlan[0].radio initialRadioMode "\"off\""
attr enum off,sleep,receiver,transmitter,transceiver
par DroneNetwork.drones[0].wlan[0].radio switchingTimes "\"ms 0 0 0 0 0 0 0 0 0 0 0 0 0 0 0 0 0 0 0 0 0 0 0 0 0\""
par DroneNetwork.drones[0].wlan[0].radio sendRawBytes false
par DroneNetwork.drones[0].wlan[0].radio separateTransmissionParts false
par DroneNetwork.drones[0].wlan[0].radio separateReceptionParts false
par DroneNetwork.drones[0].wlan[0].radio displayCommunicationRange true
par DroneNetwork.drones[0].wlan[0].radio displayInterferenceRange false
par DroneNetwork.drones[0].wlan[0].radio centerFrequency 2.412e+09Hz
attr unit Hz
par DroneNetwork.drones[0].wlan[0].radio bandwidth "nan Hz"
attr unit Hz
par DroneNetwork.drones[0].wlan[0].radio signalAnalogRepresentation "\"scalar\""
attr enum scalar,dimensional
par DroneNetwork.drones[0].wlan[0].radio opMode "\"g(mixed)\""
attr enum a,b,g(erp),g(mixed),n(mixed-2.4Ghz),p,ac
par DroneNetwork.drones[0].wlan[0].radio bandName "\"2.4 GHz\""
attr enum "2.4 GHz,5 GHz,5 GHz (20 MHz),5 GHz (40 MHz),5 GHz (80 MHz),5 GHz (160 MHz),5.9 GHz"
par DroneNetwork.drones[0].wlan[0].radio channelNumber 0
par DroneNetwork.drones[0].wlan[0].radio crcMode "\"declared\""
attr enum declared,computed
statistic DroneNetwork.drones[0].wlan[0].radio radioChannel:histogram
field count 1
field mean 0
field stddev -nan
field min 0
field max 0
field sum 0
field sqrsum 0
attr interpolationmode sample-hold
attr recordingmode histogram
attr source radioChannelChanged
attr title "Radio channel"
bin	-inf	0
bin	-0.5	0
bin	-0.48	0
bin	-0.46	0
bin	-0.44	0
bin	-0.42	0
bin	-0.4	0
bin	-0.38	0
bin	-0.36	0
bin	-0.34	0
bin	-0.32	0
bin	-0.3	0
bin	-0.28	0
bin	-0.26	0
bin	-0.24	0
bin	-0.22	0
bin	-0.2	0
bin	-0.18	0
bin	-0.16	0
bin	-0.14	0
bin	-0.12	0
bin	-0.1	0
bin	-0.08	0
bin	-0.06	0
bin	-0.04	0
bin	-0.02	0
bin	0	1
bin	0.02	0
bin	0.04	0
bin	0.06	0
bin	0.08	0
bin	0.1	0
bin	0.12	0
bin	0.14	0
bin	0.16	0
bin	0.18	0
bin	0.2	0
bin	0.22	0
bin	0.24	0
bin	0.26	0
bin	0.28	0
bin	0.3	0
bin	0.32	0
bin	0.34	0
bin	0.36	0
bin	0.38	0
bin	0.4	0
bin	0.42	0
bin	0.44	0
bin	0.46	0
bin	0.48	0
bin	0.5	0
scalar DroneNetwork.drones[0].wlan[0].radio radioMode:count 3
attr interpolationmode sample-hold
attr recordingmode count
attr source radioModeChanged
attr title "Radio mode, count"
scalar DroneNetwork.drones[0].wlan[0].radio receptionState:count 1
attr interpolationmode sample-hold
attr recordingmode count
attr source receptionStateChanged
attr title "Radio reception state, count"
scalar DroneNetwork.drones[0].wlan[0].radio transmissionState:count 0
attr interpolationmode sample-hold
attr recordingmode count
attr source transmissionStateChanged
attr title "Radio transmission state, count"
statistic DroneNetwork.drones[0].wlan[0].radio minSnir:histogram
field count 0
field mean -nan
field stddev -nan
field min -nan
field max -nan
field sum 0
field sqrsum 0
attr recordingmode histogram
attr source minimumSnir(packetSentToUpper)
attr title "Min SNIR"
bin	-inf	0
bin	0	0
bin	1	0
statistic DroneNetwork.drones[0].wlan[0].radio packetErrorRate:histogram
field count 0
field mean -nan
field stddev -nan
field min -nan
field max -nan
field sum 0
field sqrsum 0
attr recordingmode histogram
attr source packetErrorRate(packetSentToUpper)
attr title "Packet error rate"
bin	-inf	0
bin	0	0
bin	1	0
statistic DroneNetwork.drones[0].wlan[0].radio bitErrorRate:histogram
field count 0
field mean -nan
field stddev -nan
field min -nan
field max -nan
field sum 0
field sqrsum 0
attr recordingmode histogram
attr source bitErrorRate(packetSentToUpper)
attr title "Bit error rate"
bin	-inf	0
bin	0	0
bin	1	0
statistic DroneNetwork.drones[0].wlan[0].radio symbolErrorRate:histogram
field count 0
field mean -nan
field stddev -nan
field min -nan
field max -nan
field sum 0
field sqrsum 0
attr recordingmode histogram
attr source symbolErrorRate(packetSentToUpper)
attr title "Symbol error rate"
bin	-inf	0
bin	0	0
bin	1	0
par DroneNetwork.drones[0].wlan[0] typename "\"inet.linklayer.ieee80211.Ieee80211Interface\""
par DroneNetwork.drones[0].wlan[0] displayStringTextFormat "\"%a (%i)\\n%m\""
par DroneNetwork.drones[0].wlan[0] recordPcap false
par DroneNetwork.drones[0].wlan[0] numPcapRecorders 0
par DroneNetwork.drones[0].wlan[0] interfaceTableModule "\"DroneNetwork.drones[0].interfaceTable\""
par DroneNetwork.drones[0].wlan[0] energySourceModule "\"\""
par DroneNetwork.drones[0].wlan[0] opMode "\"g(mixed)\""
attr enum a,b,g(erp),g(mixed),n(mixed-2.4Ghz),p,ac
par DroneNetwork.drones[0].wlan[0] address "\"0A-AA-00-00-00-01\""
attr mutable ""
par DroneNetwork.drones[0].wlan[0] protocol "\"\""
par DroneNetwork.drones[0].wlan[0] bitrate -1bps
attr unit bps
scalar DroneNetwork.drones[0].wlan[0] packetDropInterfaceDown:count 0
attr interpolationmode none
attr recordingmode count
attr source packetDropReasonIsInterfaceDown(packetDropped)
attr title "packet drops: interface down, count"
scalar DroneNetwork.drones[0].wlan[0] packetDropInterfaceDown:sum(packetBytes) 0
attr interpolationmode none
attr recordingmode sum(packetBytes)
attr source packetDropReasonIsInterfaceDown(packetDropped)
attr title "packet drops: interface down, sum(packetBytes)"
scalar DroneNetwork.drones[0].wlan[0] packetDropNoCarrier:count 0
attr interpolationmode none
attr recordingmode count
attr source packetDropReasonIsNoCarrier(packetDropped)
attr title "packet drops: no carrier, count"
scalar DroneNetwork.drones[0].wlan[0] packetDropNoCarrier:sum(packetBytes) 0
attr interpolationmode none
attr recordingmode sum(packetBytes)
attr source packetDropReasonIsNoCarrier(packetDropped)
attr title "packet drops: no carrier, sum(packetBytes)"
par DroneNetwork.drones[0].ipv4.transportIn.channel typename "\"ned.IdealChannel\""
par DroneNetwork.drones[0].ipv4.up.out[0].channel typename "\"ned.IdealChannel\""
par DroneNetwork.drones[0].ipv4.lp.out[2].channel typename "\"ned.IdealChannel\""
par DroneNetwork.drones[0].ipv4.ifIn.channel typename "\"ned.IdealChannel\""
par DroneNetwork.drones[0].ipv4.configurator typename "\"inet.networklayer.configurator.ipv4.Ipv4NodeConfigurator\""
par DroneNetwork.drones[0].ipv4.configurator interfaceTableModule "\"DroneNetwork.drones[0].interfaceTable\""
par DroneNetwork.drones[0].ipv4.configurator routingTableModule "\"DroneNetwork.drones[0].ipv4.routingTable\""
par DroneNetwork.drones[0].ipv4.configurator networkConfiguratorModule "\"configurator\""
par DroneNetwork.drones[0].ipv4.configurator configureRoutingTable true
par DroneNetwork.drones[0].ipv4.routingTable typename "\"inet.networklayer.ipv4.Ipv4RoutingTable\""
par DroneNetwork.drones[0].ipv4.routingTable interfaceTableModule "\"DroneNetwork.drones[0].interfaceTable\""
par DroneNetwork.drones[0].ipv4.routingTable routerId "\"auto\""
par DroneNetwork.drones[0].ipv4.routingTable netmaskRoutes "\"*\""
par DroneNetwork.drones[0].ipv4.routingTable forwarding true
par DroneNetwork.drones[0].ipv4.routingTable multicastForwarding false
par DroneNetwork.drones[0].ipv4.routingTable useAdminDist false
par DroneNetwork.drones[0].ipv4.routingTable routingFile "\"\""
par DroneNetwork.drones[0].ipv4.natTable typename "\"inet.networklayer.ipv4.Ipv4NatTable\""
par DroneNetwork.drones[0].ipv4.natTable networkProtocolModule "\"^.ip\""
par DroneNetwork.drones[0].ipv4.natTable config "<config/> at content:1"
par DroneNetwork.drones[0].ipv4.up typename "\"inet.common.MessageDispatcher\""
par DroneNetwork.drones[0].ipv4.up displayStringTextFormat "\"processed %p pk (%l)\""
par DroneNetwork.drones[0].ipv4.up forwardServiceRegistration true
par DroneNetwork.drones[0].ipv4.up forwardProtocolRegistration true
par DroneNetwork.drones[0].ipv4.igmp typename "\"inet.networklayer.ipv4.Igmpv2\""
par DroneNetwork.drones[0].ipv4.igmp interfaceTableModule "\"DroneNetwork.drones[0].interfaceTable\""
par DroneNetwork.drones[0].ipv4.igmp routingTableModule "\"DroneNetwork.drones[0].ipv4.routingTable\""
par DroneNetwork.drones[0].ipv4.igmp crcMode "\"declared\""
attr enum declared,computed
par DroneNetwork.drones[0].ipv4.igmp enabled true
par DroneNetwork.drones[0].ipv4.igmp robustnessVariable 2
par DroneNetwork.drones[0].ipv4.igmp queryInterval 125s
attr unit s
par DroneNetwork.drones[0].ipv4.igmp queryResponseInterval 10s
attr unit s
par DroneNetwork.drones[0].ipv4.igmp groupMembershipInterval 260s
attr unit s
par DroneNetwork.drones[0].ipv4.igmp otherQuerierPresentInterval 255s
attr unit s
par DroneNetwork.drones[0].ipv4.igmp startupQueryInterval 31.25s
attr unit s
par DroneNetwork.drones[0].ipv4.igmp startupQueryCount 2
par DroneNetwork.drones[0].ipv4.igmp lastMemberQueryInterval 1s
attr unit s
par DroneNetwork.drones[0].ipv4.igmp lastMemberQueryCount 2
par DroneNetwork.drones[0].ipv4.igmp unsolicitedReportInterval 10s
attr unit s
par DroneNetwork.drones[0].ipv4.icmp typename "\"inet.networklayer.ipv4.Icmp\""
par DroneNetwork.drones[0].ipv4.icmp interfaceTableModule "\"DroneNetwork.drones[0].interfaceTable\""
par DroneNetwork.drones[0].ipv4.icmp routingTableModule "\"DroneNetwork.drones[0].ipv4.routingTable\""
par DroneNetwork.drones[0].ipv4.icmp crcMode "\"declared\""
attr enum declared,computed
attr mutable ""
par DroneNetwork.drones[0].ipv4.icmp quoteLength 8B
attr mutable ""
attr unit B
par DroneNetwork.drones[0].ipv4.mp typename "\"inet.common.MessageDispatcher\""
par DroneNetwork.drones[0].ipv4.mp displayStringTextFormat "\"processed %p pk (%l)\""
par DroneNetwork.drones[0].ipv4.mp forwardServiceRegistration true
par DroneNetwork.drones[0].ipv4.mp forwardProtocolRegistration true
par DroneNetwork.drones[0].ipv4.ip typename "\"inet.networklayer.ipv4.Ipv4\""
par DroneNetwork.drones[0].ipv4.ip interfaceTableModule "\"DroneNetwork.drones[0].interfaceTable\""
par DroneNetwork.drones[0].ipv4.ip routingTableModule "\"DroneNetwork.drones[0].ipv4.routingTable\""
par DroneNetwork.drones[0].ipv4.ip arpModule "\"DroneNetwork.drones[0].ipv4.arp\""
par DroneNetwork.drones[0].ipv4.ip icmpModule "\"DroneNetwork.drones[0].ipv4.icmp\""
par DroneNetwork.drones[0].ipv4.ip crcMode "\"declared\""
attr enum declared,computed
par DroneNetwork.drones[0].ipv4.ip timeToLive 32
par DroneNetwork.drones[0].ipv4.ip multicastTimeToLive 32
par DroneNetwork.drones[0].ipv4.ip fragmentTimeout 60s
attr unit s
par DroneNetwork.drones[0].ipv4.ip limitedBroadcast false
par DroneNetwork.drones[0].ipv4.ip directBroadcastInterfaces "\"\""
scalar DroneNetwork.drones[0].ipv4.ip packetDropAddressResolutionFailed:count 0
attr interpolationmode none
attr recordingmode count
attr source packetDropReasonIsAddressResolutionFailed(packetDropped)
attr title "packet drop: address resolution failed, count"
scalar DroneNetwork.drones[0].ipv4.ip packetDropAddressResolutionFailed:sum(packetBytes) 0
attr interpolationmode none
attr recordingmode sum(packetBytes)
attr source packetDropReasonIsAddressResolutionFailed(packetDropped)
attr title "packet drop: address resolution failed, sum(packetBytes)"
scalar DroneNetwork.drones[0].ipv4.ip packetDropHopLimitReached:count 0
attr interpolationmode none
attr recordingmode count
attr source packetDropReasonIsHopLimitReached(packetDropped)
attr title "packet drop: hop limit reached, count"
scalar DroneNetwork.drones[0].ipv4.ip packetDropHopLimitReached:sum(packetBytes) 0
attr interpolationmode none
attr recordingmode sum(packetBytes)
attr source packetDropReasonIsHopLimitReached(packetDropped)
attr title "packet drop: hop limit reached, sum(packetBytes)"
scalar DroneNetwork.drones[0].ipv4.ip packetDropForwardingDisabled:count 0
attr interpolationmode none
attr recordingmode count
attr source packetDropReasonIsForwardingDisabled(packetDropped)
attr title "packet drop: forwarding disabled, count"
scalar DroneNetwork.drones[0].ipv4.ip packetDropForwardingDisabled:sum(packetBytes) 0
attr interpolationmode none
attr recordingmode sum(packetBytes)
attr source packetDropReasonIsForwardingDisabled(packetDropped)
attr title "packet drop: forwarding disabled, sum(packetBytes)"
scalar DroneNetwork.drones[0].ipv4.ip packetDropNoInterfaceFound:count 0
attr interpolationmode none
attr recordingmode count
attr source packetDropReasonIsNoInterfaceFound(packetDropped)
attr title "packet drop: no interface found, count"
scalar DroneNetwork.drones[0].ipv4.ip packetDropNoInterfaceFound:sum(packetBytes) 0
attr interpolationmode none
attr recordingmode sum(packetBytes)
attr source packetDropReasonIsNoInterfaceFound(packetDropped)
attr title "packet drop: no interface found, sum(packetBytes)"
scalar DroneNetwork.drones[0].ipv4.ip packetDropNoRouteFound:count 0
attr interpolationmode none
attr recordingmode count
attr source packetDropReasonIsNoRouteFound(packetDropped)
attr title "packet drop: no route found, count"
scalar DroneNetwork.drones[0].ipv4.ip packetDropNoRouteFound:sum(packetBytes) 0
attr interpolationmode none
attr recordingmode sum(packetBytes)
attr source packetDropReasonIsNoRouteFound(packetDropped)
attr title "packet drop: no route found, sum(packetBytes)"
scalar DroneNetwork.drones[0].ipv4.ip packetDropUndefined:count 0
attr interpolationmode none
attr recordingmode count
attr source packetDropReasonIsUndefined(packetDropped)
attr title "packet drop: undefined, count"
scalar DroneNetwork.drones[0].ipv4.ip packetDropUndefined:sum(packetBytes) 0
attr interpolationmode none
attr recordingmode sum(packetBytes)
attr source packetDropReasonIsUndefined(packetDropped)
attr title "packet drop: undefined, sum(packetBytes)"
par DroneNetwork.drones[0].ipv4.arp typename "\"inet.networklayer.arp.ipv4.Arp\""
par DroneNetwork.drones[0].ipv4.arp interfaceTableModule "\"DroneNetwork.drones[0].interfaceTable\""
par DroneNetwork.drones[0].ipv4.arp routingTableModule "\"DroneNetwork.drones[0].ipv4.routingTable\""
par DroneNetwork.drones[0].ipv4.arp retryTimeout 1s
attr unit s
par DroneNetwork.drones[0].ipv4.arp retryCount 3
par DroneNetwork.drones[0].ipv4.arp cacheTimeout 120s
attr unit s
par DroneNetwork.drones[0].ipv4.arp proxyArpInterfaces "\"\""
scalar DroneNetwork.drones[0].ipv4.arp arpResolutionFailed:count 0
attr recordingmode count
attr title "ARP failed resolutions, count"
scalar DroneNetwork.drones[0].ipv4.arp arpResolutionCompleted:count 0
attr recordingmode count
attr title "ARP completed resolutions, count"
scalar DroneNetwork.drones[0].ipv4.arp arpResolutionInitiated:count 0
attr recordingmode count
attr title "ARP initiated resolutions, count"
scalar DroneNetwork.drones[0].ipv4.arp arpReplySent:count 0
attr recordingmode count
attr source arpReplySent
attr title "ARP replies sent, count"
scalar DroneNetwork.drones[0].ipv4.arp arpReplySent:sum(packetBytes) 0
attr recordingmode sum(packetBytes)
attr source arpReplySent
attr title "ARP replies sent, sum(packetBytes)"
scalar DroneNetwork.drones[0].ipv4.arp arpRequestSent:count 0
attr recordingmode count
attr source arpRequestSent
attr title "ARP request sent, count"
scalar DroneNetwork.drones[0].ipv4.arp arpRequestSent:sum(packetBytes) 0
attr recordingmode sum(packetBytes)
attr source arpRequestSent
attr title "ARP request sent, sum(packetBytes)"
par DroneNetwork.drones[0].ipv4.lp typename "\"inet.common.MessageDispatcher\""
par DroneNetwork.drones[0].ipv4.lp displayStringTextFormat "\"processed %p pk (%l)\""
par DroneNetwork.drones[0].ipv4.lp forwardServiceRegistration true
par DroneNetwork.drones[0].ipv4.lp forwardProtocolRegistration true
par DroneNetwork.drones[0].ipv4 typename "\"inet.networklayer.ipv4.Ipv4NetworkLayer\""
par DroneNetwork.drones[0].ipv4 forwarding true
par DroneNetwork.drones[0].ipv4 multicastForwarding false
par DroneNetwork.drones[0].ipv4 interfaceTableModule "\"DroneNetwork.drones[0].interfaceTable\""
par DroneNetwork.drones[0].ipv4 displayStringTextFormat "\"%i\""
par DroneNetwork.drones[0].nl typename "\"inet.common.MessageDispatcher\""
par DroneNetwork.drones[0].nl displayStringTextFormat "\"processed %p pk (%l)\""
par DroneNetwork.drones[0].nl forwardServiceRegistration true
par DroneNetwork.drones[0].nl forwardProtocolRegistration true
par DroneNetwork.drones[0].udp typename "\"inet.transportlayer.udp.Udp\""
par DroneNetwork.drones[0].udp interfaceTableModule "\"DroneNetwork.drones[0].interfaceTable\""
par DroneNetwork.drones[0].udp icmpModule "\"^.ipv4.icmp\""
par DroneNetwork.drones[0].udp icmpv6Module "\"^.ipv6.icmpv6\""
par DroneNetwork.drones[0].udp crcMode "\"declared\""
attr enum disabled,declared,computed
par DroneNetwork.drones[0].udp defaultMulticastLoop true
scalar DroneNetwork.drones[0].udp packetReceived:count 0
attr interpolationmode none
attr recordingmode count
attr source packetReceived
attr title "packets received, count"
scalar DroneNetwork.drones[0].udp packetReceived:sum(packetBytes) 0
attr interpolationmode none
attr recordingmode sum(packetBytes)
attr source packetReceived
attr title "packets received, sum(packetBytes)"
scalar DroneNetwork.drones[0].udp packetSent:count 0
attr interpolationmode none
attr recordingmode count
attr source packetSent
attr title "packets sent, count"
scalar DroneNetwork.drones[0].udp packetSent:sum(packetBytes) 0
attr interpolationmode none
attr recordingmode sum(packetBytes)
attr source packetSent
attr title "packets sent, sum(packetBytes)"
scalar DroneNetwork.drones[0].udp passedUpPk:count 0
attr interpolationmode none
attr recordingmode count
attr source packetSentToUpper
attr title "packets passed up, count"
scalar DroneNetwork.drones[0].udp droppedPkWrongPort:count 0
attr interpolationmode none
attr recordingmode count
attr source packetDropReasonIsNoPortFound(packetDropped)
attr title "packets dropped (wrong port), count"
scalar DroneNetwork.drones[0].udp droppedPkBadChecksum:count 0
attr interpolationmode none
attr recordingmode count
attr source packetDropReasonIsIncorrectlyReceived(packetDropped)
attr title "packets dropped (checksum error), count"
par DroneNetwork.drones[0].tcp.conn-3 typename "\"inet.transportlayer.tcp.TcpConnection\""
par DroneNetwork.drones[0].tcp typename "\"inet.transportlayer.tcp.Tcp\""
par DroneNetwork.drones[0].tcp crcMode "\"declared\""
attr enum declared,computed
par DroneNetwork.drones[0].tcp advertisedWindow 7504
par DroneNetwork.drones[0].tcp delayedAcksEnabled false
par DroneNetwork.drones[0].tcp nagleEnabled true
par DroneNetwork.drones[0].tcp limitedTransmitEnabled false
par DroneNetwork.drones[0].tcp increasedIWEnabled false
par DroneNetwork.drones[0].tcp sackSupport false
par DroneNetwork.drones[0].tcp windowScalingSupport false
par DroneNetwork.drones[0].tcp windowScalingFactor -1
par DroneNetwork.drones[0].tcp timestampSupport false
par DroneNetwork.drones[0].tcp mss 536
par DroneNetwork.drones[0].tcp msl 120s
attr unit s
par DroneNetwork.drones[0].tcp tcpAlgorithmClass "\"TcpReno\""
par DroneNetwork.drones[0].tcp useDataNotification false
par DroneNetwork.drones[0].tcp dupthresh 3
par DroneNetwork.drones[0].tcp initialSsthresh 4294967295
par DroneNetwork.drones[0].tcp stopOperationExtraTime 0s
attr unit s
par DroneNetwork.drones[0].tcp stopOperationTimeout 2s
attr unit s
par DroneNetwork.drones[0].tcp ecnWillingness false
par DroneNetwork.drones[0].tcp dctcpGamma 0.0625
par DroneNetwork.drones[0].tn typename "\"inet.common.MessageDispatcher\""
par DroneNetwork.drones[0].tn displayStringTextFormat "\"processed %p pk (%l)\""
par DroneNetwork.drones[0].tn forwardServiceRegistration true
par DroneNetwork.drones[0].tn forwardProtocolRegistration true
par DroneNetwork.drones[0].app[0].ta.out[1].channel typename "\"ned.IdealChannel\""
par DroneNetwork.drones[0].app[0].socketIn.channel typename "\"ned.IdealChannel\""
par DroneNetwork.drones[0].app[0].listener typename "\"Physical_layer.Drone_block.MyTcpAppListener\""
par DroneNetwork.drones[0].app[0].listener localAddress "\"\""
par DroneNetwork.drones[0].app[0].listener localPort 1234
par DroneNetwork.drones[0].app[0].listener serverConnectionModuleType "\"Physical_layer.Drone_block.CustomTcpServerConnection\""
par DroneNetwork.drones[0].app[0].ta typename "\"inet.common.MessageDispatcher\""
par DroneNetwork.drones[0].app[0].ta displayStringTextFormat "\"processed %p pk (%l)\""
par DroneNetwork.drones[0].app[0].ta forwardServiceRegistration true
par DroneNetwork.drones[0].app[0].ta forwardProtocolRegistration true
par DroneNetwork.drones[0].app[0] typename "\"Physical_layer.Drone_block.DroneTcpApp\""
par DroneNetwork.drones[0].app[0] interfaceTableModule "\"DroneNetwork.drones[0].interfaceTable\""
par DroneNetwork.drones[0].app[1] typename "\"Physical_layer.Drone_block.DroneTcpClient\""
par DroneNetwork.drones[0].app[1] Drone_ID 0
par DroneNetwork.drones[0].app[1] localAddress "\"\""
par DroneNetwork.drones[0].app[1] localPort 1235
par DroneNetwork.drones[0].app[1] connectAddress "\"\""
par DroneNetwork.drones[0].app[1] connectPort 1234
par DroneNetwork.drones[0].app[1] autoRead true
par DroneNetwork.drones[0].app[2] typename "\"Physical_layer.Drone_block.DroneUdpApp\""
par DroneNetwork.drones[0].app[2] localAddress "\"\""
par DroneNetwork.drones[0].app[2] localPort 5001
par DroneNetwork.drones[0].at typename "\"inet.common.MessageDispatcher\""
par DroneNetwork.drones[0].at displayStringTextFormat "\"processed %p pk (%l)\""
par DroneNetwork.drones[0].at forwardServiceRegistration true
par DroneNetwork.drones[0].at forwardProtocolRegistration true
par DroneNetwork.drones[0].droneControl typename "\"Physical_layer.Drone_block.DroneControl\""
par DroneNetwork.drones[0].droneControl Drone_ID 1
par DroneNetwork.drones[0].droneControl number_of_rotors 4
par DroneNetwork.drones[0].droneControl motor_efficiency 0.6
par DroneNetwork.drones[0].droneControl mass_of_drone 1.5kg
attr unit kg
par DroneNetwork.drones[0].droneControl additional_mass 0kg
attr unit kg
par DroneNetwork.drones[0].droneControl frequencyHz 24000Hz
attr unit Hz
par DroneNetwork.drones[0].droneControl antena_power 0.5J
attr unit J
par DroneNetwork.drones[0].droneControl sensor_power 0.7J
attr unit J
par DroneNetwork.drones[0].droneControl additional_power 0J
attr unit J
par DroneNetwork.drones[0].droneControl battery_capacity 8000mAh
attr unit mAh
par DroneNetwork.drones[0].droneControl battery_remain 8000mAh
attr unit mAh
par DroneNetwork.drones[0].droneControl battery_voltage 14.88V
attr unit V
par DroneNetwork.drones[0].droneControl drone_size 1m
attr unit m
par DroneNetwork.drones[0].droneControl acceleration 0a
attr unit a
par DroneNetwork.drones[0].droneControl x_velocity 0ms
attr unit ms
par DroneNetwork.drones[0].droneControl y_velocity 0ms
attr unit ms
par DroneNetwork.drones[0].droneControl z_velocity 0ms
attr unit ms
par DroneNetwork.drones[0].droneControl time_step 10
par DroneNetwork.drones[0].aodv typename "\"inet.routing.aodv.Aodv\""
par DroneNetwork.drones[0].aodv routingTableModule "\"^.ipv4.routingTable\""
par DroneNetwork.drones[0].aodv interfaceTableModule "\"DroneNetwork.drones[0].interfaceTable\""
par DroneNetwork.drones[0].aodv networkProtocolModule "\"^.ipv4.ip\""
par DroneNetwork.drones[0].aodv askGratuitousRREP false
par DroneNetwork.drones[0].aodv useHelloMessages false
par DroneNetwork.drones[0].aodv useLocalRepair false
par DroneNetwork.drones[0].aodv destinationOnlyFlag false
par DroneNetwork.drones[0].aodv udpPort 654
par DroneNetwork.drones[0].aodv interface "\"wlan0\""
par DroneNetwork.drones[0].aodv maxPeriodicJitter 0.25s
attr unit s
par DroneNetwork.drones[0].aodv periodicJitter "uniform(0s, maxPeriodicJitter)"
attr unit s
par DroneNetwork.drones[0].aodv maxJitter 0.005s
attr unit s
par DroneNetwork.drones[0].aodv jitter "uniform(0ms, maxJitter)"
attr unit s
par DroneNetwork.drones[0].aodv helloInterval 1s
attr unit s
par DroneNetwork.drones[0].aodv allowedHelloLoss 2
par DroneNetwork.drones[0].aodv activeRouteTimeout 3s
attr unit s
par DroneNetwork.drones[0].aodv netDiameter 35
par DroneNetwork.drones[0].aodv nodeTraversalTime 0.04s
attr unit s
par DroneNetwork.drones[0].aodv rerrRatelimit 10
par DroneNetwork.drones[0].aodv rreqRetries 2
par DroneNetwork.drones[0].aodv rreqRatelimit 10
par DroneNetwork.drones[0].aodv timeoutBuffer 2
par DroneNetwork.drones[0].aodv ttlStart 2
par DroneNetwork.drones[0].aodv ttlIncrement 2
par DroneNetwork.drones[0].aodv ttlThreshold 7
par DroneNetwork.drones[0].aodv localAddTTL 2
par DroneNetwork.drones[0].aodv myRouteTimeout 6s
attr unit s
par DroneNetwork.drones[0].aodv deletePeriod 15s
attr unit s
par DroneNetwork.drones[0].aodv blacklistTimeout 5.6s
attr unit s
par DroneNetwork.drones[0].aodv netTraversalTime 2.8s
attr unit s
par DroneNetwork.drones[0].aodv nextHopWait 0.05s
attr unit s
par DroneNetwork.drones[0].aodv pathDiscoveryTime 5.6s
attr unit s
par DroneNetwork.drones[0] typename "\"Physical_layer.Drone_block.Drone\""
par DroneNetwork.drones[0] hasStatus false
par DroneNetwork.drones[0] osgModel "\"\""
par DroneNetwork.drones[0] osgModelColor "\"\""
par DroneNetwork.drones[0] canvasImage "\"\""
par DroneNetwork.drones[0] canvasImageColor "\"\""
par DroneNetwork.drones[0] recordPcap false
par DroneNetwork.drones[0] numPcapRecorders 0
par DroneNetwork.drones[0] numLoInterfaces 1
par DroneNetwork.drones[0] numWlanInterfaces 1
par DroneNetwork.drones[0] numEthInterfaces 0
par DroneNetwork.drones[0] numPppInterfaces 0
par DroneNetwork.drones[0] numTunInterfaces 0
par DroneNetwork.drones[0] numVirtInterfaces 0
par DroneNetwork.drones[0] fcsMode "\"declared\""
attr enum declared,computed
par DroneNetwork.drones[0] hasIpv4 true
par DroneNetwork.drones[0] hasIpv6 false
par DroneNetwork.drones[0] hasGn false
par DroneNetwork.drones[0] forwarding true
par DroneNetwork.drones[0] multicastForwarding false
par DroneNetwork.drones[0] hasUdp true
par DroneNetwork.drones[0] hasTcp true
par DroneNetwork.drones[0] hasSctp false
par DroneNetwork.drones[0] numApps 3
par DroneNetwork.drones[0] Drone_ID 1
par DroneNetwork.drones[0] useAODV true
par DroneNetwork.drones[0] useAdhocHost true
par DroneNetwork.drones[1].radioIn[0].channel typename "\"ned.IdealChannel\""
par DroneNetwork.drones[1].mobility typename "\"Physical_layer.Drone_block.PublicStationaryMobility\""
par DroneNetwork.drones[1].mobility subjectModule "\"^\""
par DroneNetwork.drones[1].mobility coordinateSystemModule "\"\""
par DroneNetwork.drones[1].mobility displayStringTextFormat "\"p: %p\\nv: %v\""
attr mutable ""
par DroneNetwork.drones[1].mobility updateDisplayString true
par DroneNetwork.drones[1].mobility constraintAreaMinX "-inf m"
attr unit m
par DroneNetwork.drones[1].mobility constraintAreaMinY "-inf m"
attr unit m
par DroneNetwork.drones[1].mobility constraintAreaMinZ "-inf m"
attr unit m
par DroneNetwork.drones[1].mobility constraintAreaMaxX "inf m"
attr unit m
par DroneNetwork.drones[1].mobility constraintAreaMaxY "inf m"
attr unit m
par DroneNetwork.drones[1].mobility constraintAreaMaxZ "inf m"
attr unit m
par DroneNetwork.drones[1].mobility initialX 400m
attr unit m
par DroneNetwork.drones[1].mobility initialY 200m
attr unit m
par DroneNetwork.drones[1].mobility initialZ 0m
attr unit m
par DroneNetwork.drones[1].mobility initialLatitude "nan deg"
attr unit deg
par DroneNetwork.drones[1].mobility initialLongitude "nan deg"
attr unit deg
par DroneNetwork.drones[1].mobility initialAltitude 0m
attr unit m
par DroneNetwork.drones[1].mobility initialHeading 0deg
attr unit deg
par DroneNetwork.drones[1].mobility initialElevation 0deg
attr unit deg
par DroneNetwork.drones[1].mobility initialBank 0deg
attr unit deg
par DroneNetwork.drones[1].mobility initFromDisplayString false
par DroneNetwork.drones[1].mobility updateFromDisplayString true
par DroneNetwork.drones[1].interfaceTable typename "\"inet.networklayer.common.InterfaceTable\""
par DroneNetwork.drones[1].interfaceTable displayAddresses false
par DroneNetwork.drones[1].cb typename "\"inet.common.MessageDispatcher\""
par DroneNetwork.drones[1].cb displayStringTextFormat "\"processed %p pk (%l)\""
par DroneNetwork.drones[1].cb forwardServiceRegistration true
par DroneNetwork.drones[1].cb forwardProtocolRegistration true
par DroneNetwork.drones[1].bl typename "\"inet.common.MessageDispatcher\""
par DroneNetwork.drones[1].bl displayStringTextFormat "\"processed %p pk (%l)\""
par DroneNetwork.drones[1].bl forwardServiceRegistration true
par DroneNetwork.drones[1].bl forwardProtocolRegistration true
par DroneNetwork.drones[1].li typename "\"inet.common.MessageDispatcher\""
par DroneNetwork.drones[1].li displayStringTextFormat "\"processed %p pk (%l)\""
par DroneNetwork.drones[1].li forwardServiceRegistration true
par DroneNetwork.drones[1].li forwardProtocolRegistration true
par DroneNetwork.drones[1].lo[0].upperLayerIn.channel typename "\"ned.IdealChannel\""
par DroneNetwork.drones[1].lo[0].lo.upperLayerOut.channel typename "\"ned.IdealChannel\""
par DroneNetwork.drones[1].lo[0].lo typename "\"inet.linklayer.loopback.Loopback\""
par DroneNetwork.drones[1].lo[0].lo interfaceTableModule "\"DroneNetwork.drones[1].interfaceTable\""
par DroneNetwork.drones[1].lo[0].lo mtu 4470B
attr unit B
scalar DroneNetwork.drones[1].lo[0].lo rcvdPkFromHl:count 0
attr interpolationmode none
attr recordingmode count
attr source packetReceivedFromUpper
attr title "packets received from higher layer, count"
scalar DroneNetwork.drones[1].lo[0].lo rcvdPkFromHl:sum(packetBytes) 0
attr interpolationmode none
attr recordingmode sum(packetBytes)
attr source packetReceivedFromUpper
attr title "packets received from higher layer, sum(packetBytes)"
scalar DroneNetwork.drones[1].lo[0].lo passedUpPk:count 0
attr interpolationmode none
attr recordingmode count
attr source packetSentToUpper
attr title "packets passed to higher layer, count"
scalar DroneNetwork.drones[1].lo[0].lo passedUpPk:sum(packetBytes) 0
attr interpolationmode none
attr recordingmode sum(packetBytes)
attr source packetSentToUpper
attr title "packets passed to higher layer, sum(packetBytes)"
par DroneNetwork.drones[1].lo[0] typename "\"inet.linklayer.loopback.LoopbackInterface\""
par DroneNetwork.drones[1].lo[0] displayStringTextFormat "\"%a (%i)\\n%m\""
par DroneNetwork.drones[1].lo[0] recordPcap false
par DroneNetwork.drones[1].lo[0] numPcapRecorders 0
par DroneNetwork.drones[1].lo[0] interfaceTableModule "\"DroneNetwork.drones[1].interfaceTable\""
scalar DroneNetwork.drones[1].lo[0] packetDropInterfaceDown:count 0
attr interpolationmode none
attr recordingmode count
attr source packetDropReasonIsInterfaceDown(packetDropped)
attr title "packet drops: interface down, count"
scalar DroneNetwork.drones[1].lo[0] packetDropInterfaceDown:sum(packetBytes) 0
attr interpolationmode none
attr recordingmode sum(packetBytes)
attr source packetDropReasonIsInterfaceDown(packetDropped)
attr title "packet drops: interface down, sum(packetBytes)"
scalar DroneNetwork.drones[1].lo[0] packetDropNoCarrier:count 0
attr interpolationmode none
attr recordingmode count
attr source packetDropReasonIsNoCarrier(packetDropped)
attr title "packet drops: no carrier, count"
scalar DroneNetwork.drones[1].lo[0] packetDropNoCarrier:sum(packetBytes) 0
attr interpolationmode none
attr recordingmode sum(packetBytes)
attr source packetDropReasonIsNoCarrier(packetDropped)
attr title "packet drops: no carrier, sum(packetBytes)"
par DroneNetwork.drones[1].wlan[0].radioIn.channel typename "\"ned.IdealChannel\""
par DroneNetwork.drones[1].wlan[0].llc.upperLayerOut.channel typename "\"ned.IdealChannel\""
par DroneNetwork.drones[1].wlan[0].upperLayerIn.channel typename "\"ned.IdealChannel\""
par DroneNetwork.drones[1].wlan[0].mib typename "\"inet.linklayer.ieee80211.mib.Ieee80211Mib\""
par DroneNetwork.drones[1].wlan[0].llc typename "\"inet.linklayer.ieee80211.llc.Ieee80211LlcLpd\""
par DroneNetwork.drones[1].wlan[0].llc registerProtocol false
par DroneNetwork.drones[1].wlan[0].mgmt typename "\"inet.linklayer.ieee80211.mgmt.Ieee80211MgmtAdhoc\""
par DroneNetwork.drones[1].wlan[0].mgmt mibModule "\"DroneNetwork.drones[1].wlan[0].mib\""
par DroneNetwork.drones[1].wlan[0].mgmt macModule "\"DroneNetwork.drones[1].wlan[0].mac\""
par DroneNetwork.drones[1].wlan[0].mgmt interfaceTableModule "\"DroneNetwork.drones[1].interfaceTable\""
par DroneNetwork.drones[1].wlan[0].mac.dcf.channelAccess.pendingQueue typename "\"inet.linklayer.ieee80211.mac.queue.PendingQueue\""
par DroneNetwork.drones[1].wlan[0].mac.dcf.channelAccess.pendingQueue displayStringTextFormat "\"contains %p pk (%l) pushed %u\\npulled %o removed %r dropped %d\""
par DroneNetwork.drones[1].wlan[0].mac.dcf.channelAccess.pendingQueue packetCapacity 100
par DroneNetwork.drones[1].wlan[0].mac.dcf.channelAccess.pendingQueue dataCapacity -1b
attr unit b
par DroneNetwork.drones[1].wlan[0].mac.dcf.channelAccess.pendingQueue dropperClass "\"inet::queueing::PacketAtCollectionEndDropper\""
par DroneNetwork.drones[1].wlan[0].mac.dcf.channelAccess.pendingQueue comparatorClass "\"inet::ieee80211::MgmtOverDataComparator\""
par DroneNetwork.drones[1].wlan[0].mac.dcf.channelAccess.pendingQueue bufferModule "\"\""
scalar DroneNetwork.drones[1].wlan[0].mac.dcf.channelAccess.pendingQueue queueLength:last 0
attr autoWarmupFilter false
attr interpolationmode sample-hold
attr recordingmode last
attr source "warmup(atomic(constant0(packetPushEnded) + count(packetPushStarted) - count(packetPulled) - count(packetRemoved) - count(packetDropped)))"
attr title "queue length, last"
attr unit pk
scalar DroneNetwork.drones[1].wlan[0].mac.dcf.channelAccess.pendingQueue queueLength:max 0
attr autoWarmupFilter false
attr interpolationmode sample-hold
attr recordingmode max
attr source "warmup(atomic(constant0(packetPushEnded) + count(packetPushStarted) - count(packetPulled) - count(packetRemoved) - count(packetDropped)))"
attr title "queue length, max"
attr unit pk
scalar DroneNetwork.drones[1].wlan[0].mac.dcf.channelAccess.pendingQueue queueLength:timeavg 0
attr autoWarmupFilter false
attr interpolationmode sample-hold
attr recordingmode timeavg
attr source "warmup(atomic(constant0(packetPushEnded) + count(packetPushStarted) - count(packetPulled) - count(packetRemoved) - count(packetDropped)))"
attr title "queue length, timeavg"
attr unit pk
scalar DroneNetwork.drones[1].wlan[0].mac.dcf.channelAccess.pendingQueue queueBitLength:last 0
attr autoWarmupFilter false
[...]
par DroneNetwork.drones[2].ipv4.routingTable netmaskRoutes "\"*\""
par DroneNetwork.drones[2].ipv4.routingTable forwarding true
par DroneNetwork.drones[2].ipv4.routingTable multicastForwarding false
par DroneNetwork.drones[2].ipv4.routingTable useAdminDist false
par DroneNetwork.drones[2].ipv4.routingTable routingFile "\"\""
par DroneNetwork.drones[2].ipv4.natTable typename "\"inet.networklayer.ipv4.Ipv4NatTable\""
par DroneNetwork.drones[2].ipv4.natTable networkProtocolModule "\"^.ip\""
par DroneNetwork.drones[2].ipv4.natTable config "<config/> at content:1"
par DroneNetwork.drones[2].ipv4.up typename "\"inet.common.MessageDispatcher\""
par DroneNetwork.drones[2].ipv4.up displayStringTextFormat "\"processed %p pk (%l)\""
par DroneNetwork.drones[2].ipv4.up forwardServiceRegistration true
par DroneNetwork.drones[2].ipv4.up forwardProtocolRegistration true
par DroneNetwork.drones[2].ipv4.igmp typename "\"inet.networklayer.ipv4.Igmpv2\""
par DroneNetwork.drones[2].ipv4.igmp interfaceTableModule "\"DroneNetwork.drones[2].interfaceTable\""
par DroneNetwork.drones[2].ipv4.igmp routingTableModule "\"DroneNetwork.drones[2].ipv4.routingTable\""
par DroneNetwork.drones[2].ipv4.igmp crcMode "\"declared\""
attr enum declared,computed
par DroneNetwork.drones[2].ipv4.igmp enabled true
par DroneNetwork.drones[2].ipv4.igmp robustnessVariable 2
par DroneNetwork.drones[2].ipv4.igmp queryInterval 125s
attr unit s
par DroneNetwork.drones[2].ipv4.igmp queryResponseInterval 10s
attr unit s
par DroneNetwork.drones[2].ipv4.igmp groupMembershipInterval 260s
attr unit s
par DroneNetwork.drones[2].ipv4.igmp otherQuerierPresentInterval 255s
attr unit s
par DroneNetwork.drones[2].ipv4.igmp startupQueryInterval 31.25s
attr unit s
par DroneNetwork.drones[2].ipv4.igmp startupQueryCount 2
par DroneNetwork.drones[2].ipv4.igmp lastMemberQueryInterval 1s
attr unit s
par DroneNetwork.drones[2].ipv4.igmp lastMemberQueryCount 2
par DroneNetwork.drones[2].ipv4.igmp unsolicitedReportInterval 10s
attr unit s
par DroneNetwork.drones[2].ipv4.icmp typename "\"inet.networklayer.ipv4.Icmp\""
par DroneNetwork.drones[2].ipv4.icmp interfaceTableModule "\"DroneNetwork.drones[2].interfaceTable\""
par DroneNetwork.drones[2].ipv4.icmp routingTableModule "\"DroneNetwork.drones[2].ipv4.routingTable\""
par DroneNetwork.drones[2].ipv4.icmp crcMode "\"declared\""
attr enum declared,computed
attr mutable ""
par DroneNetwork.drones[2].ipv4.icmp quoteLength 8B
attr mutable ""
attr unit B
par DroneNetwork.drones[2].ipv4.mp typename "\"inet.common.MessageDispatcher\""
par DroneNetwork.drones[2].ipv4.mp displayStringTextFormat "\"processed %p pk (%l)\""
par DroneNetwork.drones[2].ipv4.mp forwardServiceRegistration true
par DroneNetwork.drones[2].ipv4.mp forwardProtocolRegistration true
par DroneNetwork.drones[2].ipv4.ip typename "\"inet.networklayer.ipv4.Ipv4\""
par DroneNetwork.drones[2].ipv4.ip interfaceTableModule "\"DroneNetwork.drones[2].interfaceTable\""
par DroneNetwork.drones[2].ipv4.ip routingTableModule "\"DroneNetwork.drones[2].ipv4.routingTable\""
par DroneNetwork.drones[2].ipv4.ip arpModule "\"DroneNetwork.drones[2].ipv4.arp\""
par DroneNetwork.drones[2].ipv4.ip icmpModule "\"DroneNetwork.drones[2].ipv4.icmp\""
par DroneNetwork.drones[2].ipv4.ip crcMode "\"declared\""
attr enum declared,computed
par DroneNetwork.drones[2].ipv4.ip timeToLive 32
par DroneNetwork.drones[2].ipv4.ip multicastTimeToLive 32
par DroneNetwork.drones[2].ipv4.ip fragmentTimeout 60s
attr unit s
par DroneNetwork.drones[2].ipv4.ip limitedBroadcast false
par DroneNetwork.drones[2].ipv4.ip directBroadcastInterfaces "\"\""
scalar DroneNetwork.drones[2].ipv4.ip packetDropAddressResolutionFailed:count 0
attr interpolationmode none
attr recordingmode count
attr source packetDropReasonIsAddressResolutionFailed(packetDropped)
attr title "packet drop: address resolution failed, count"
scalar DroneNetwork.drones[2].ipv4.ip packetDropAddressResolutionFailed:sum(packetBytes) 0
attr interpolationmode none
attr recordingmode sum(packetBytes)
attr source packetDropReasonIsAddressResolutionFailed(packetDropped)
attr title "packet drop: address resolution failed, sum(packetBytes)"
scalar DroneNetwork.drones[2].ipv4.ip packetDropHopLimitReached:count 0
attr interpolationmode none
attr recordingmode count
attr source packetDropReasonIsHopLimitReached(packetDropped)
attr title "packet drop: hop limit reached, count"
scalar DroneNetwork.drones[2].ipv4.ip packetDropHopLimitReached:sum(packetBytes) 0
attr interpolationmode none
attr recordingmode sum(packetBytes)
attr source packetDropReasonIsHopLimitReached(packetDropped)
attr title "packet drop: hop limit reached, sum(packetBytes)"
scalar DroneNetwork.drones[2].ipv4.ip packetDropForwardingDisabled:count 0
attr interpolationmode none
attr recordingmode count
attr source packetDropReasonIsForwardingDisabled(packetDropped)
attr title "packet drop: forwarding disabled, count"
scalar DroneNetwork.drones[2].ipv4.ip packetDropForwardingDisabled:sum(packetBytes) 0
attr interpolationmode none
attr recordingmode sum(packetBytes)
attr source packetDropReasonIsForwardingDisabled(packetDropped)
attr title "packet drop: forwarding disabled, sum(packetBytes)"
scalar DroneNetwork.drones[2].ipv4.ip packetDropNoInterfaceFound:count 0
attr interpolationmode none
attr recordingmode count
attr source packetDropReasonIsNoInterfaceFound(packetDropped)
attr title "packet drop: no interface found, count"
scalar DroneNetwork.drones[2].ipv4.ip packetDropNoInterfaceFound:sum(packetBytes) 0
attr interpolationmode none
attr recordingmode sum(packetBytes)
attr source packetDropReasonIsNoInterfaceFound(packetDropped)
attr title "packet drop: no interface found, sum(packetBytes)"
scalar DroneNetwork.drones[2].ipv4.ip packetDropNoRouteFound:count 0
attr interpolationmode none
attr recordingmode count
attr source packetDropReasonIsNoRouteFound(packetDropped)
attr title "packet drop: no route found, count"
scalar DroneNetwork.drones[2].ipv4.ip packetDropNoRouteFound:sum(packetBytes) 0
attr interpolationmode none
attr recordingmode sum(packetBytes)
attr source packetDropReasonIsNoRouteFound(packetDropped)
attr title "packet drop: no route found, sum(packetBytes)"
scalar DroneNetwork.drones[2].ipv4.ip packetDropUndefined:count 0
attr interpolationmode none
attr recordingmode count
attr source packetDropReasonIsUndefined(packetDropped)
attr title "packet drop: undefined, count"
scalar DroneNetwork.drones[2].ipv4.ip packetDropUndefined:sum(packetBytes) 0
attr interpolationmode none
attr recordingmode sum(packetBytes)
attr source packetDropReasonIsUndefined(packetDropped)
attr title "packet drop: undefined, sum(packetBytes)"
par DroneNetwork.drones[2].ipv4.arp typename "\"inet.networklayer.arp.ipv4.Arp\""
par DroneNetwork.drones[2].ipv4.arp interfaceTableModule "\"DroneNetwork.drones[2].interfaceTable\""
par DroneNetwork.drones[2].ipv4.arp routingTableModule "\"DroneNetwork.drones[2].ipv4.routingTable\""
par DroneNetwork.drones[2].ipv4.arp retryTimeout 1s
attr unit s
par DroneNetwork.drones[2].ipv4.arp retryCount 3
par DroneNetwork.drones[2].ipv4.arp cacheTimeout 120s
attr unit s
par DroneNetwork.drones[2].ipv4.arp proxyArpInterfaces "\"\""
scalar DroneNetwork.drones[2].ipv4.arp arpResolutionFailed:count 0
attr recordingmode count
attr title "ARP failed resolutions, count"
scalar DroneNetwork.drones[2].ipv4.arp arpResolutionCompleted:count 0
attr recordingmode count
attr title "ARP completed resolutions, count"
scalar DroneNetwork.drones[2].ipv4.arp arpResolutionInitiated:count 0
attr recordingmode count
attr title "ARP initiated resolutions, count"
scalar DroneNetwork.drones[2].ipv4.arp arpReplySent:count 0
attr recordingmode count
attr source arpReplySent
attr title "ARP replies sent, count"
scalar DroneNetwork.drones[2].ipv4.arp arpReplySent:sum(packetBytes) 0
attr recordingmode sum(packetBytes)
attr source arpReplySent
attr title "ARP replies sent, sum(packetBytes)"
scalar DroneNetwork.drones[2].ipv4.arp arpRequestSent:count 0
attr recordingmode count
attr source arpRequestSent
attr title "ARP request sent, count"
scalar DroneNetwork.drones[2].ipv4.arp arpRequestSent:sum(packetBytes) 0
attr recordingmode sum(packetBytes)
attr source arpRequestSent
attr title "ARP request sent, sum(packetBytes)"
par DroneNetwork.drones[2].ipv4.lp typename "\"inet.common.MessageDispatcher\""
par DroneNetwork.drones[2].ipv4.lp displayStringTextFormat "\"processed %p pk (%l)\""
par DroneNetwork.drones[2].ipv4.lp forwardServiceRegistration true
par DroneNetwork.drones[2].ipv4.lp forwardProtocolRegistration true
par DroneNetwork.drones[2].ipv4 typename "\"inet.networklayer.ipv4.Ipv4NetworkLayer\""
par DroneNetwork.drones[2].ipv4 forwarding true
par DroneNetwork.drones[2].ipv4 multicastForwarding false
par DroneNetwork.drones[2].ipv4 interfaceTableModule "\"DroneNetwork.drones[2].interfaceTable\""
par DroneNetwork.drones[2].ipv4 displayStringTextFormat "\"%i\""
par DroneNetwork.drones[2].nl typename "\"inet.common.MessageDispatcher\""
par DroneNetwork.drones[2].nl displayStringTextFormat "\"processed %p pk (%l)\""
par DroneNetwork.drones[2].nl forwardServiceRegistration true
par DroneNetwork.drones[2].nl forwardProtocolRegistration true
par DroneNetwork.drones[2].udp typename "\"inet.transportlayer.udp.Udp\""
par DroneNetwork.drones[2].udp interfaceTableModule "\"DroneNetwork.drones[2].interfaceTable\""
par DroneNetwork.drones[2].udp icmpModule "\"^.ipv4.icmp\""
par DroneNetwork.drones[2].udp icmpv6Module "\"^.ipv6.icmpv6\""
par DroneNetwork.drones[2].udp crcMode "\"declared\""
attr enum disabled,declared,computed
par DroneNetwork.drones[2].udp defaultMulticastLoop true
scalar DroneNetwork.drones[2].udp packetReceived:count 0
attr interpolationmode none
attr recordingmode count
attr source packetReceived
attr title "packets received, count"
scalar DroneNetwork.drones[2].udp packetReceived:sum(packetBytes) 0
attr interpolationmode none
attr recordingmode sum(packetBytes)
attr source packetReceived
attr title "packets received, sum(packetBytes)"
scalar DroneNetwork.drones[2].udp packetSent:count 0
attr interpolationmode none
attr recordingmode count
attr source packetSent
attr title "packets sent, count"
scalar DroneNetwork.drones[2].udp packetSent:sum(packetBytes) 0
attr interpolationmode none
attr recordingmode sum(packetBytes)
attr source packetSent
attr title "packets sent, sum(packetBytes)"
scalar DroneNetwork.drones[2].udp passedUpPk:count 0
attr interpolationmode none
attr recordingmode count
attr source packetSentToUpper
attr title "packets passed up, count"
scalar DroneNetwork.drones[2].udp droppedPkWrongPort:count 0
attr interpolationmode none
attr recordingmode count
attr source packetDropReasonIsNoPortFound(packetDropped)
attr title "packets dropped (wrong port), count"
scalar DroneNetwork.drones[2].udp droppedPkBadChecksum:count 0
attr interpolationmode none
attr recordingmode count
attr source packetDropReasonIsIncorrectlyReceived(packetDropped)
attr title "packets dropped (checksum error), count"
par DroneNetwork.drones[2].tcp.conn-11 typename "\"inet.transportlayer.tcp.TcpConnection\""
par DroneNetwork.drones[2].tcp typename "\"inet.transportlayer.tcp.Tcp\""
par DroneNetwork.drones[2].tcp crcMode "\"declared\""
attr enum declared,computed
par DroneNetwork.drones[2].tcp advertisedWindow 7504
par DroneNetwork.drones[2].tcp delayedAcksEnabled false
par DroneNetwork.drones[2].tcp nagleEnabled true
par DroneNetwork.drones[2].tcp limitedTransmitEnabled false
par DroneNetwork.drones[2].tcp increasedIWEnabled false
par DroneNetwork.drones[2].tcp sackSupport false
par DroneNetwork.drones[2].tcp windowScalingSupport false
par DroneNetwork.drones[2].tcp windowScalingFactor -1
par DroneNetwork.drones[2].tcp timestampSupport false
par DroneNetwork.drones[2].tcp mss 536
par DroneNetwork.drones[2].tcp msl 120s
attr unit s
par DroneNetwork.drones[2].tcp tcpAlgorithmClass "\"TcpReno\""
par DroneNetwork.drones[2].tcp useDataNotification false
par DroneNetwork.drones[2].tcp dupthresh 3
par DroneNetwork.drones[2].tcp initialSsthresh 4294967295
par DroneNetwork.drones[2].tcp stopOperationExtraTime 0s
attr unit s
par DroneNetwork.drones[2].tcp stopOperationTimeout 2s
attr unit s
par DroneNetwork.drones[2].tcp ecnWillingness false
par DroneNetwork.drones[2].tcp dctcpGamma 0.0625
par DroneNetwork.drones[2].tn typename "\"inet.common.MessageDispatcher\""
par DroneNetwork.drones[2].tn displayStringTextFormat "\"processed %p pk (%l)\""
par DroneNetwork.drones[2].tn forwardServiceRegistration true
par DroneNetwork.drones[2].tn forwardProtocolRegistration true
par DroneNetwork.drones[2].app[0].ta.out[1].channel typename "\"ned.IdealChannel\""
par DroneNetwork.drones[2].app[0].socketIn.channel typename "\"ned.IdealChannel\""
par DroneNetwork.drones[2].app[0].listener typename "\"Physical_layer.Drone_block.MyTcpAppListener\""
par DroneNetwork.drones[2].app[0].listener localAddress "\"\""
par DroneNetwork.drones[2].app[0].listener localPort 1234
par DroneNetwork.drones[2].app[0].listener serverConnectionModuleType "\"Physical_layer.Drone_block.CustomTcpServerConnection\""
par DroneNetwork.drones[2].app[0].ta typename "\"inet.common.MessageDispatcher\""
par DroneNetwork.drones[2].app[0].ta displayStringTextFormat "\"processed %p pk (%l)\""
par DroneNetwork.drones[2].app[0].ta forwardServiceRegistration true
par DroneNetwork.drones[2].app[0].ta forwardProtocolRegistration true
par DroneNetwork.drones[2].app[0] typename "\"Physical_layer.Drone_block.DroneTcpApp\""
par DroneNetwork.drones[2].app[0] interfaceTableModule "\"DroneNetwork.drones[2].interfaceTable\""
par DroneNetwork.drones[2].app[1] typename "\"Physical_layer.Drone_block.DroneTcpClient\""
par DroneNetwork.drones[2].app[1] Drone_ID 0
par DroneNetwork.drones[2].app[1] localAddress "\"\""
par DroneNetwork.drones[2].app[1] localPort 1235
par DroneNetwork.drones[2].app[1] connectAddress "\"\""
par DroneNetwork.drones[2].app[1] connectPort 1234
par DroneNetwork.drones[2].app[1] autoRead true
par DroneNetwork.drones[2].app[2] typename "\"Physical_layer.Drone_block.DroneUdpApp\""
par DroneNetwork.drones[2].app[2] localAddress "\"\""
par DroneNetwork.drones[2].app[2] localPort 5001
par DroneNetwork.drones[2].at typename "\"inet.common.MessageDispatcher\""
par DroneNetwork.drones[2].at displayStringTextFormat "\"processed %p pk (%l)\""
par DroneNetwork.drones[2].at forwardServiceRegistration true
par DroneNetwork.drones[2].at forwardProtocolRegistration true
par DroneNetwork.drones[2].droneControl typename "\"Physical_layer.Drone_block.DroneControl\""
par DroneNetwork.drones[2].droneControl Drone_ID 3
par DroneNetwork.drones[2].droneControl number_of_rotors 4
par DroneNetwork.drones[2].droneControl motor_efficiency 0.6
par DroneNetwork.drones[2].droneControl mass_of_drone 1.5kg
attr unit kg
par DroneNetwork.drones[2].droneControl additional_mass 0kg
attr unit kg
par DroneNetwork.drones[2].droneControl frequencyHz 24000Hz
attr unit Hz
par DroneNetwork.drones[2].droneControl antena_power 0.5J
attr unit J
par DroneNetwork.drones[2].droneControl sensor_power 0.7J
attr unit J
par DroneNetwork.drones[2].droneControl additional_power 0J
attr unit J
par DroneNetwork.drones[2].droneControl battery_capacity 8000mAh
attr unit mAh
par DroneNetwork.drones[2].droneControl battery_remain 8000mAh
attr unit mAh
par DroneNetwork.drones[2].droneControl battery_voltage 14.88V
attr unit V
par DroneNetwork.drones[2].droneControl drone_size 1m
attr unit m
par DroneNetwork.drones[2].droneControl acceleration 0a
attr unit a
par DroneNetwork.drones[2].droneControl x_velocity 0ms
attr unit ms
par DroneNetwork.drones[2].droneControl y_velocity 0ms
attr unit ms
par DroneNetwork.drones[2].droneControl z_velocity 0ms
attr unit ms
par DroneNetwork.drones[2].droneControl time_step 10
par DroneNetwork.drones[2].aodv typename "\"inet.routing.aodv.Aodv\""
par DroneNetwork.drones[2].aodv routingTableModule "\"^.ipv4.routingTable\""
par DroneNetwork.drones[2].aodv interfaceTableModule "\"DroneNetwork.drones[2].interfaceTable\""
par DroneNetwork.drones[2].aodv networkProtocolModule "\"^.ipv4.ip\""
par DroneNetwork.drones[2].aodv askGratuitousRREP false
par DroneNetwork.drones[2].aodv useHelloMessages false
par DroneNetwork.drones[2].aodv useLocalRepair false
par DroneNetwork.drones[2].aodv destinationOnlyFlag false
par DroneNetwork.drones[2].aodv udpPort 654
par DroneNetwork.drones[2].aodv interface "\"wlan0\""
par DroneNetwork.drones[2].aodv maxPeriodicJitter 0.25s
attr unit s
par DroneNetwork.drones[2].aodv periodicJitter "uniform(0s, maxPeriodicJitter)"
attr unit s
par DroneNetwork.drones[2].aodv maxJitter 0.005s
attr unit s
par DroneNetwork.drones[2].aodv jitter "uniform(0ms, maxJitter)"
attr unit s
par DroneNetwork.drones[2].aodv helloInterval 1s
attr unit s
par DroneNetwork.drones[2].aodv allowedHelloLoss 2
par DroneNetwork.drones[2].aodv activeRouteTimeout 3s
attr unit s
par DroneNetwork.drones[2].aodv netDiameter 35
par DroneNetwork.drones[2].aodv nodeTraversalTime 0.04s
attr unit s
par DroneNetwork.drones[2].aodv rerrRatelimit 10
par DroneNetwork.drones[2].aodv rreqRetries 2
par DroneNetwork.drones[2].aodv rreqRatelimit 10
par DroneNetwork.drones[2].aodv timeoutBuffer 2
par DroneNetwork.drones[2].aodv ttlStart 2
par DroneNetwork.drones[2].aodv ttlIncrement 2
par DroneNetwork.drones[2].aodv ttlThreshold 7
par DroneNetwork.drones[2].aodv localAddTTL 2
par DroneNetwork.drones[2].aodv myRouteTimeout 6s
attr unit s
par DroneNetwork.drones[2].aodv deletePeriod 15s
attr unit s
par DroneNetwork.drones[2].aodv blacklistTimeout 5.6s
attr unit s
par DroneNetwork.drones[2].aodv netTraversalTime 2.8s
attr unit s
par DroneNetwork.drones[2].aodv nextHopWait 0.05s
attr unit s
par DroneNetwork.drones[2].aodv pathDiscoveryTime 5.6s
attr unit s
par DroneNetwork.drones[2] typename "\"Physical_layer.Drone_block.Drone\""
par DroneNetwork.drones[2] hasStatus false
par DroneNetwork.drones[2] osgModel "\"\""
par DroneNetwork.drones[2] osgModelColor "\"\""
par DroneNetwork.drones[2] canvasImage "\"\""
par DroneNetwork.drones[2] canvasImageColor "\"\""
par DroneNetwork.drones[2] recordPcap false
par DroneNetwork.drones[2] numPcapRecorders 0
par DroneNetwork.drones[2] numLoInterfaces 1
par DroneNetwork.drones[2] numWlanInterfaces 1
par DroneNetwork.drones[2] numEthInterfaces 0
par DroneNetwork.drones[2] numPppInterfaces 0
par DroneNetwork.drones[2] numTunInterfaces 0
par DroneNetwork.drones[2] numVirtInterfaces 0
par DroneNetwork.drones[2] fcsMode "\"declared\""
attr enum declared,computed
par DroneNetwork.drones[2] hasIpv4 true
par DroneNetwork.drones[2] hasIpv6 false
par DroneNetwork.drones[2] hasGn false
par DroneNetwork.drones[2] forwarding true
par DroneNetwork.drones[2] multicastForwarding false
par DroneNetwork.drones[2] hasUdp true
par DroneNetwork.drones[2] hasTcp true
par DroneNetwork.drones[2] hasSctp false
par DroneNetwork.drones[2] numApps 3
par DroneNetwork.drones[2] Drone_ID 3
par DroneNetwork.drones[2] useAODV true
par DroneNetwork.drones[2] useAdhocHost true
par DroneNetwork.simControl typename "\"Physical_layer.simulations.SimulationControl\""
par DroneNetwork.simControl blockSize 100
par DroneNetwork.simControl numDrones 3
par DroneNetwork.simControl numOfSockets 3
par DroneNetwork.simControl numOfChargeStation 2
par DroneNetwork.simControl nextStationId 5
par DroneNetwork.simControl heightMapFile "\"heightmap.txt\""
par DroneNetwork.basicProtocol typename "\"BasicProtocol_layer.BasicProtocol\""
par DroneNetwork.basicProtocol numOfdronesSockets 3
par DroneNetwork.basicProtocol numOfchargeStationSockets 2
par DroneNetwork.basicProtocol localPort 1235
par DroneNetwork.basicProtocol connectPort 1234
par DroneNetwork.basicProtocol udpPort 5001
par DroneNetwork.userLayer typename "\"User_layer.UserLayer\""
par DroneNetwork.userLayer numOfdronesSockets 3
par DroneNetwork.userLayer numOfchargeStationSockets 2
par DroneNetwork typename "\"DroneNetwork\""
par DroneNetwork numChargeStation 2
par DroneNetwork numDrones 3

